/*---------------------------------------------------------------------------*\
| =========                 |                                                 |
| \\      /  F ield         | OpenFOAM: The Open Source CFD Toolbox           |
|  \\    /   O peration     | Version:  2.3.1                                 |
|   \\  /    A nd           | Web:      www.OpenFOAM.org                      |
|    \\/     M anipulation  |                                                 |
\*---------------------------------------------------------------------------*/
Build  : 2.3.1-262087cdf8db
Exec   : pisoFoam
Date   : May 28 2015
Time   : 18:44:25
Host   : "NAT-INSIDE-192-168-210-208.rrz.uni-hamburg.de.local"
PID    : 69734
Case   : /Users/fljohnston1/GitHub/wind/motorBike
nProcs : 1
sigFpe : Enabling floating point exception trapping (FOAM_SIGFPE).
fileModificationChecking : Monitoring run-time modified files using timeStampMaster
allowSystemOperations : Allowing user-supplied system call operations

// * * * * * * * * * * * * * * * * * * * * * * * * * * * * * * * * * * * * * //
Create time

Create mesh for time = 14

Reading field p

Reading field U

Reading/calculating face flux field phi

Selecting incompressible transport model Newtonian
Selecting turbulence model type RASModel
Selecting RAS turbulence model kOmegaSST
kOmegaSSTCoeffs
{
    alphaK1         0.85;
    alphaK2         1;
    alphaOmega1     0.5;
    alphaOmega2     0.856;
    gamma1          0.555556;
    gamma2          0.44;
    beta1           0.075;
    beta2           0.0828;
    betaStar        0.09;
    a1              0.31;
    b1              1;
    c1              10;
    F3              false;
}


Starting time loop

forces forces:
    Not including porosity effects

forceCoeffs forceCoeffs1:
    Not including porosity effects

Time = 14.01

Courant Number mean: 0.0198077 max: 0.711349
DILUPBiCG:  Solving for Ux, Initial residual = 1.1899e-05, Final residual = 5.08848e-07, No Iterations 1
DILUPBiCG:  Solving for Uy, Initial residual = 0.000228114, Final residual = 4.59649e-06, No Iterations 1
DICPCG:  Solving for p, Initial residual = 0.000778723, Final residual = 7.45527e-05, No Iterations 27
DICPCG:  Solving for p, Initial residual = 0.000127664, Final residual = 1.24193e-05, No Iterations 73
time step continuity errors : sum local = 9.63368e-12, global = 1.93056e-14, cumulative = 1.93056e-14
DICPCG:  Solving for p, Initial residual = 0.000277398, Final residual = 2.50341e-05, No Iterations 91
DICPCG:  Solving for p, Initial residual = 5.79546e-05, Final residual = 9.1244e-07, No Iterations 44
time step continuity errors : sum local = 7.07804e-13, global = -4.38829e-14, cumulative = -2.45772e-14
DILUPBiCG:  Solving for omega, Initial residual = 8.54e-06, Final residual = 8.54e-06, No Iterations 0
DILUPBiCG:  Solving for k, Initial residual = 0.000836184, Final residual = 4.00049e-07, No Iterations 1
ExecutionTime = 0.25 s  ClockTime = 1 s

forces forces output:
    sum of forces:
        pressure : (1.08634 -0.000224009 9.56097e-18)
        viscous  : (0.0256712 -3.42443e-06 -2.6542e-18)
        porous   : (0 0 0)
    sum of moments:
        pressure : (0.000112005 0.543169 -7.42752e-10)
        viscous  : (1.71221e-06 0.0128356 -3.76278e-07)
        porous   : (0 0 0)

forceCoeffs forceCoeffs1 output:
    Cm    = 0.453881
    Cd    = 0.907762
    Cl    = -0.00018566
    Cl(f) = 0.453788
    Cl(r) = -0.453974

Time = 14.02

Courant Number mean: 0.0198077 max: 0.71151
DILUPBiCG:  Solving for Ux, Initial residual = 1.18945e-05, Final residual = 5.00104e-07, No Iterations 1
DILUPBiCG:  Solving for Uy, Initial residual = 0.000227942, Final residual = 4.60371e-06, No Iterations 1
DICPCG:  Solving for p, Initial residual = 0.000740491, Final residual = 6.33804e-05, No Iterations 28
DICPCG:  Solving for p, Initial residual = 0.000114286, Final residual = 1.1258e-05, No Iterations 73
time step continuity errors : sum local = 8.73156e-12, global = -1.75312e-14, cumulative = -4.21084e-14
DICPCG:  Solving for p, Initial residual = 0.000271471, Final residual = 2.48989e-05, No Iterations 91
DICPCG:  Solving for p, Initial residual = 5.73222e-05, Final residual = 9.04931e-07, No Iterations 44
time step continuity errors : sum local = 7.01871e-13, global = -4.85948e-14, cumulative = -9.07033e-14
DILUPBiCG:  Solving for omega, Initial residual = 8.54767e-06, Final residual = 8.54767e-06, No Iterations 0
DILUPBiCG:  Solving for k, Initial residual = 0.000835229, Final residual = 3.99493e-07, No Iterations 1
ExecutionTime = 0.41 s  ClockTime = 1 s

forces forces output:
    sum of forces:
        pressure : (1.08643 -0.000220727 9.56075e-18)
        viscous  : (0.0256656 -3.41946e-06 -2.65431e-18)
        porous   : (0 0 0)
    sum of moments:
        pressure : (0.000110363 0.543215 -7.50244e-10)
        viscous  : (1.70973e-06 0.0128328 -3.8465e-07)
        porous   : (0 0 0)

forceCoeffs forceCoeffs1 output:
    Cm    = 0.453916
    Cd    = 0.907833
    Cl    = -0.000182976
    Cl(f) = 0.453825
    Cl(r) = -0.454008

Time = 14.03

Courant Number mean: 0.0198077 max: 0.711664
DILUPBiCG:  Solving for Ux, Initial residual = 1.18906e-05, Final residual = 4.91685e-07, No Iterations 1
DILUPBiCG:  Solving for Uy, Initial residual = 0.000227775, Final residual = 4.6125e-06, No Iterations 1
DICPCG:  Solving for p, Initial residual = 0.000731392, Final residual = 7.16676e-05, No Iterations 27
DICPCG:  Solving for p, Initial residual = 0.000121546, Final residual = 1.1836e-05, No Iterations 73
time step continuity errors : sum local = 9.17826e-12, global = 1.51017e-15, cumulative = -8.91931e-14
DICPCG:  Solving for p, Initial residual = 0.000268875, Final residual = 2.47055e-05, No Iterations 91
DICPCG:  Solving for p, Initial residual = 5.64985e-05, Final residual = 9.87402e-07, No Iterations 43
time step continuity errors : sum local = 7.65701e-13, global = -4.14496e-14, cumulative = -1.30643e-13
DILUPBiCG:  Solving for omega, Initial residual = 8.55536e-06, Final residual = 8.55536e-06, No Iterations 0
DILUPBiCG:  Solving for k, Initial residual = 0.000834275, Final residual = 3.9898e-07, No Iterations 1
ExecutionTime = 0.57 s  ClockTime = 1 s

forces forces output:
    sum of forces:
        pressure : (1.08652 -0.000218024 9.56051e-18)
        viscous  : (0.0256601 -3.41135e-06 -2.65448e-18)
        porous   : (0 0 0)
    sum of moments:
        pressure : (0.000109012 0.543262 -7.41578e-10)
        viscous  : (1.70567e-06 0.01283 -3.92801e-07)
        porous   : (0 0 0)

forceCoeffs forceCoeffs1 output:
    Cm    = 0.453953
    Cd    = 0.907906
    Cl    = -0.000180763
    Cl(f) = 0.453862
    Cl(r) = -0.454043

Time = 14.04

Courant Number mean: 0.0198078 max: 0.711811
DILUPBiCG:  Solving for Ux, Initial residual = 1.18865e-05, Final residual = 4.83158e-07, No Iterations 1
DILUPBiCG:  Solving for Uy, Initial residual = 0.000227611, Final residual = 4.61912e-06, No Iterations 1
DICPCG:  Solving for p, Initial residual = 0.000745727, Final residual = 7.0193e-05, No Iterations 27
DICPCG:  Solving for p, Initial residual = 0.000120104, Final residual = 1.14506e-05, No Iterations 73
time step continuity errors : sum local = 8.87751e-12, global = -9.3447e-15, cumulative = -1.39987e-13
DICPCG:  Solving for p, Initial residual = 0.00026751, Final residual = 2.46948e-05, No Iterations 91
DICPCG:  Solving for p, Initial residual = 5.58739e-05, Final residual = 9.77632e-07, No Iterations 43
time step continuity errors : sum local = 7.57969e-13, global = -3.77446e-14, cumulative = -1.77732e-13
DILUPBiCG:  Solving for omega, Initial residual = 8.56314e-06, Final residual = 8.56314e-06, No Iterations 0
DILUPBiCG:  Solving for k, Initial residual = 0.000833322, Final residual = 3.98516e-07, No Iterations 1
ExecutionTime = 0.72 s  ClockTime = 1 s

forces forces output:
    sum of forces:
        pressure : (1.08661 -0.000212953 9.56025e-18)
        viscous  : (0.0256545 -3.40254e-06 -2.65465e-18)
        porous   : (0 0 0)
    sum of moments:
        pressure : (0.000106476 0.543306 -7.32554e-10)
        viscous  : (1.70127e-06 0.0128273 -4.00786e-07)
        porous   : (0 0 0)

forceCoeffs forceCoeffs1 output:
    Cm    = 0.453986
    Cd    = 0.907972
    Cl    = -0.000176617
    Cl(f) = 0.453898
    Cl(r) = -0.454074

Time = 14.05

Courant Number mean: 0.0198078 max: 0.71195
DILUPBiCG:  Solving for Ux, Initial residual = 1.18826e-05, Final residual = 4.75025e-07, No Iterations 1
DILUPBiCG:  Solving for Uy, Initial residual = 0.00022745, Final residual = 4.62707e-06, No Iterations 1
DICPCG:  Solving for p, Initial residual = 0.000755604, Final residual = 7.08685e-05, No Iterations 27
DICPCG:  Solving for p, Initial residual = 0.00011962, Final residual = 1.16648e-05, No Iterations 73
time step continuity errors : sum local = 9.04177e-12, global = 3.06008e-15, cumulative = -1.74672e-13
DICPCG:  Solving for p, Initial residual = 0.000264851, Final residual = 2.49015e-05, No Iterations 91
DICPCG:  Solving for p, Initial residual = 5.52492e-05, Final residual = 9.47794e-07, No Iterations 43
time step continuity errors : sum local = 7.34689e-13, global = -3.24103e-14, cumulative = -2.07082e-13
DILUPBiCG:  Solving for omega, Initial residual = 8.5709e-06, Final residual = 8.5709e-06, No Iterations 0
DILUPBiCG:  Solving for k, Initial residual = 0.00083237, Final residual = 3.98063e-07, No Iterations 1
ExecutionTime = 0.88 s  ClockTime = 1 s

forces forces output:
    sum of forces:
        pressure : (1.08671 -0.000209756 9.55998e-18)
        viscous  : (0.025649 -3.39379e-06 -2.65478e-18)
        porous   : (0 0 0)
    sum of moments:
        pressure : (0.000104878 0.543353 -7.23231e-10)
        viscous  : (1.69689e-06 0.0128245 -4.0806e-07)
        porous   : (0 0 0)

forceCoeffs forceCoeffs1 output:
    Cm    = 0.454023
    Cd    = 0.908045
    Cl    = -0.000174
    Cl(f) = 0.453936
    Cl(r) = -0.45411

Time = 14.06

Courant Number mean: 0.0198078 max: 0.712082
DILUPBiCG:  Solving for Ux, Initial residual = 1.18787e-05, Final residual = 4.67019e-07, No Iterations 1
DILUPBiCG:  Solving for Uy, Initial residual = 0.000227286, Final residual = 4.63471e-06, No Iterations 1
DICPCG:  Solving for p, Initial residual = 0.000746511, Final residual = 7.04027e-05, No Iterations 27
DICPCG:  Solving for p, Initial residual = 0.000118881, Final residual = 1.16313e-05, No Iterations 73
time step continuity errors : sum local = 9.01425e-12, global = 9.37183e-15, cumulative = -1.9771e-13
DICPCG:  Solving for p, Initial residual = 0.000262746, Final residual = 2.48759e-05, No Iterations 91
DICPCG:  Solving for p, Initial residual = 5.45975e-05, Final residual = 9.31411e-07, No Iterations 43
time step continuity errors : sum local = 7.21864e-13, global = -2.729e-14, cumulative = -2.25e-13
DILUPBiCG:  Solving for omega, Initial residual = 8.57864e-06, Final residual = 8.57864e-06, No Iterations 0
DILUPBiCG:  Solving for k, Initial residual = 0.00083142, Final residual = 3.97551e-07, No Iterations 1
ExecutionTime = 1.04 s  ClockTime = 2 s

forces forces output:
    sum of forces:
        pressure : (1.08681 -0.000207842 9.5597e-18)
        viscous  : (0.0256436 -3.38457e-06 -2.65491e-18)
        porous   : (0 0 0)
    sum of moments:
        pressure : (0.000103921 0.543404 -7.37275e-10)
        viscous  : (1.69228e-06 0.0128218 -4.15542e-07)
        porous   : (0 0 0)

forceCoeffs forceCoeffs1 output:
    Cm    = 0.454062
    Cd    = 0.908124
    Cl    = -0.00017243
    Cl(f) = 0.453976
    Cl(r) = -0.454148

Time = 14.07

Courant Number mean: 0.0198079 max: 0.712205
DILUPBiCG:  Solving for Ux, Initial residual = 1.18746e-05, Final residual = 4.59512e-07, No Iterations 1
DILUPBiCG:  Solving for Uy, Initial residual = 0.00022712, Final residual = 4.6423e-06, No Iterations 1
DICPCG:  Solving for p, Initial residual = 0.000735441, Final residual = 7.17278e-05, No Iterations 27
DICPCG:  Solving for p, Initial residual = 0.000119805, Final residual = 1.12168e-05, No Iterations 73
time step continuity errors : sum local = 8.69167e-12, global = 8.87971e-15, cumulative = -2.16121e-13
DICPCG:  Solving for p, Initial residual = 0.000261317, Final residual = 2.45935e-05, No Iterations 91
DICPCG:  Solving for p, Initial residual = 5.39579e-05, Final residual = 9.24447e-07, No Iterations 43
time step continuity errors : sum local = 7.16354e-13, global = -2.34158e-14, cumulative = -2.39536e-13
DILUPBiCG:  Solving for omega, Initial residual = 8.58637e-06, Final residual = 8.58637e-06, No Iterations 0
DILUPBiCG:  Solving for k, Initial residual = 0.000830471, Final residual = 3.97171e-07, No Iterations 1
ExecutionTime = 1.21 s  ClockTime = 2 s

forces forces output:
    sum of forces:
        pressure : (1.0869 -0.000204794 9.55941e-18)
        viscous  : (0.0256381 -3.37457e-06 -2.65494e-18)
        porous   : (0 0 0)
    sum of moments:
        pressure : (0.000102397 0.543452 -7.3496e-10)
        viscous  : (1.68728e-06 0.0128191 -4.23197e-07)
        porous   : (0 0 0)

forceCoeffs forceCoeffs1 output:
    Cm    = 0.454098
    Cd    = 0.908197
    Cl    = -0.000169934
    Cl(f) = 0.454014
    Cl(r) = -0.454183

Time = 14.08

Courant Number mean: 0.0198079 max: 0.71232
DILUPBiCG:  Solving for Ux, Initial residual = 1.18709e-05, Final residual = 4.51247e-07, No Iterations 1
DILUPBiCG:  Solving for Uy, Initial residual = 0.000226955, Final residual = 4.65014e-06, No Iterations 1
DICPCG:  Solving for p, Initial residual = 0.000753572, Final residual = 6.91388e-05, No Iterations 27
DICPCG:  Solving for p, Initial residual = 0.000117874, Final residual = 1.07788e-05, No Iterations 75
time step continuity errors : sum local = 8.35073e-12, global = 5.86558e-14, cumulative = -1.80881e-13
DICPCG:  Solving for p, Initial residual = 0.000260386, Final residual = 2.50247e-05, No Iterations 91
DICPCG:  Solving for p, Initial residual = 5.35879e-05, Final residual = 9.12908e-07, No Iterations 43
time step continuity errors : sum local = 7.0729e-13, global = -2.70426e-14, cumulative = -2.07923e-13
DILUPBiCG:  Solving for omega, Initial residual = 8.59407e-06, Final residual = 8.59407e-06, No Iterations 0
DILUPBiCG:  Solving for k, Initial residual = 0.000829523, Final residual = 3.96538e-07, No Iterations 1
ExecutionTime = 1.36 s  ClockTime = 2 s

forces forces output:
    sum of forces:
        pressure : (1.08701 -0.000206447 9.55906e-18)
        viscous  : (0.0256327 -3.36563e-06 -2.65499e-18)
        porous   : (0 0 0)
    sum of moments:
        pressure : (0.000103223 0.543505 -7.46019e-10)
        viscous  : (1.68281e-06 0.0128164 -4.30687e-07)
        porous   : (0 0 0)

forceCoeffs forceCoeffs1 output:
    Cm    = 0.45414
    Cd    = 0.908279
    Cl    = -0.000171276
    Cl(f) = 0.454054
    Cl(r) = -0.454225

Time = 14.09

Courant Number mean: 0.0198079 max: 0.712428
DILUPBiCG:  Solving for Ux, Initial residual = 1.18666e-05, Final residual = 4.45385e-07, No Iterations 1
DILUPBiCG:  Solving for Uy, Initial residual = 0.000226785, Final residual = 4.65676e-06, No Iterations 1
DICPCG:  Solving for p, Initial residual = 0.000762036, Final residual = 7.31183e-05, No Iterations 27
DICPCG:  Solving for p, Initial residual = 0.000123639, Final residual = 1.15906e-05, No Iterations 73
time step continuity errors : sum local = 8.97818e-12, global = 1.41276e-14, cumulative = -1.93796e-13
DICPCG:  Solving for p, Initial residual = 0.000260443, Final residual = 2.49727e-05, No Iterations 91
DICPCG:  Solving for p, Initial residual = 5.31437e-05, Final residual = 9.00233e-07, No Iterations 43
time step continuity errors : sum local = 6.97342e-13, global = -2.0895e-14, cumulative = -2.14691e-13
DILUPBiCG:  Solving for omega, Initial residual = 8.60176e-06, Final residual = 8.60176e-06, No Iterations 0
DILUPBiCG:  Solving for k, Initial residual = 0.000828576, Final residual = 3.96042e-07, No Iterations 1
ExecutionTime = 1.51 s  ClockTime = 2 s

forces forces output:
    sum of forces:
        pressure : (1.0871 -0.000198543 9.55865e-18)
        viscous  : (0.0256274 -3.35697e-06 -2.655e-18)
        porous   : (0 0 0)
    sum of moments:
        pressure : (9.92716e-05 0.543549 -7.33326e-10)
        viscous  : (1.67849e-06 0.0128137 -4.38319e-07)
        porous   : (0 0 0)

forceCoeffs forceCoeffs1 output:
    Cm    = 0.454174
    Cd    = 0.908347
    Cl    = -0.000164816
    Cl(f) = 0.454091
    Cl(r) = -0.454256

Time = 14.1

Courant Number mean: 0.0198079 max: 0.712527
DILUPBiCG:  Solving for Ux, Initial residual = 1.18636e-05, Final residual = 4.33717e-07, No Iterations 1
DILUPBiCG:  Solving for Uy, Initial residual = 0.000226645, Final residual = 4.66236e-06, No Iterations 1
DICPCG:  Solving for p, Initial residual = 0.000749538, Final residual = 6.73631e-05, No Iterations 27
DICPCG:  Solving for p, Initial residual = 0.000115334, Final residual = 1.15103e-05, No Iterations 74
time step continuity errors : sum local = 8.91464e-12, global = 5.62685e-14, cumulative = -1.58422e-13
DICPCG:  Solving for p, Initial residual = 0.000255531, Final residual = 2.45337e-05, No Iterations 91
DICPCG:  Solving for p, Initial residual = 5.19645e-05, Final residual = 8.93943e-07, No Iterations 43
time step continuity errors : sum local = 6.9238e-13, global = -1.30242e-14, cumulative = -1.71446e-13
DILUPBiCG:  Solving for omega, Initial residual = 8.60943e-06, Final residual = 8.60943e-06, No Iterations 0
DILUPBiCG:  Solving for k, Initial residual = 0.000827631, Final residual = 3.95504e-07, No Iterations 1
ExecutionTime = 1.67 s  ClockTime = 2 s

forces forces output:
    sum of forces:
        pressure : (1.08721 -0.000198136 9.55837e-18)
        viscous  : (0.025622 -3.34891e-06 -2.65505e-18)
        porous   : (0 0 0)
    sum of moments:
        pressure : (9.90678e-05 0.543603 -7.50376e-10)
        viscous  : (1.67445e-06 0.012811 -4.46053e-07)
        porous   : (0 0 0)

forceCoeffs forceCoeffs1 output:
    Cm    = 0.454216
    Cd    = 0.908431
    Cl    = -0.000164477
    Cl(f) = 0.454133
    Cl(r) = -0.454298

Time = 14.11

Courant Number mean: 0.019808 max: 0.712619
DILUPBiCG:  Solving for Ux, Initial residual = 1.18593e-05, Final residual = 4.2836e-07, No Iterations 1
DILUPBiCG:  Solving for Uy, Initial residual = 0.000226464, Final residual = 4.67066e-06, No Iterations 1
DICPCG:  Solving for p, Initial residual = 0.000741144, Final residual = 6.82474e-05, No Iterations 27
DICPCG:  Solving for p, Initial residual = 0.000116525, Final residual = 1.14644e-05, No Iterations 73
time step continuity errors : sum local = 8.87796e-12, global = 2.17371e-14, cumulative = -1.49709e-13
DICPCG:  Solving for p, Initial residual = 0.000253724, Final residual = 2.45271e-05, No Iterations 91
DICPCG:  Solving for p, Initial residual = 5.15406e-05, Final residual = 8.80563e-07, No Iterations 43
time step continuity errors : sum local = 6.81924e-13, global = -1.36092e-14, cumulative = -1.63318e-13
DILUPBiCG:  Solving for omega, Initial residual = 8.61707e-06, Final residual = 8.61707e-06, No Iterations 0
DILUPBiCG:  Solving for k, Initial residual = 0.000826687, Final residual = 3.94919e-07, No Iterations 1
ExecutionTime = 1.83 s  ClockTime = 2 s

forces forces output:
    sum of forces:
        pressure : (1.0873 -0.000195061 9.55797e-18)
        viscous  : (0.0256167 -3.34131e-06 -2.65508e-18)
        porous   : (0 0 0)
    sum of moments:
        pressure : (9.75307e-05 0.543652 -7.40021e-10)
        viscous  : (1.67066e-06 0.0128083 -4.53457e-07)
        porous   : (0 0 0)

forceCoeffs forceCoeffs1 output:
    Cm    = 0.454253
    Cd    = 0.908507
    Cl    = -0.000161961
    Cl(f) = 0.454172
    Cl(r) = -0.454334

Time = 14.12

Courant Number mean: 0.019808 max: 0.712703
DILUPBiCG:  Solving for Ux, Initial residual = 1.18558e-05, Final residual = 4.2033e-07, No Iterations 1
DILUPBiCG:  Solving for Uy, Initial residual = 0.000226308, Final residual = 4.67729e-06, No Iterations 1
DICPCG:  Solving for p, Initial residual = 0.000732961, Final residual = 6.63627e-05, No Iterations 27
DICPCG:  Solving for p, Initial residual = 0.000114126, Final residual = 1.13997e-05, No Iterations 73
time step continuity errors : sum local = 8.82676e-12, global = 2.23463e-14, cumulative = -1.40972e-13
DICPCG:  Solving for p, Initial residual = 0.000251316, Final residual = 2.45356e-05, No Iterations 91
DICPCG:  Solving for p, Initial residual = 5.0983e-05, Final residual = 8.69432e-07, No Iterations 43
time step continuity errors : sum local = 6.73223e-13, global = -4.89025e-15, cumulative = -1.45862e-13
DILUPBiCG:  Solving for omega, Initial residual = 8.6247e-06, Final residual = 8.6247e-06, No Iterations 0
DILUPBiCG:  Solving for k, Initial residual = 0.000825744, Final residual = 3.94409e-07, No Iterations 1
ExecutionTime = 1.99 s  ClockTime = 3 s

forces forces output:
    sum of forces:
        pressure : (1.08741 -0.000191888 9.55761e-18)
        viscous  : (0.0256114 -3.33343e-06 -2.65513e-18)
        porous   : (0 0 0)
    sum of moments:
        pressure : (9.59442e-05 0.543705 -7.58071e-10)
        viscous  : (1.66671e-06 0.0128057 -4.60646e-07)
        porous   : (0 0 0)

forceCoeffs forceCoeffs1 output:
    Cm    = 0.454294
    Cd    = 0.908589
    Cl    = -0.000159365
    Cl(f) = 0.454215
    Cl(r) = -0.454374

Time = 14.13

Courant Number mean: 0.019808 max: 0.71278
DILUPBiCG:  Solving for Ux, Initial residual = 1.1852e-05, Final residual = 4.1383e-07, No Iterations 1
DILUPBiCG:  Solving for Uy, Initial residual = 0.000226141, Final residual = 4.68463e-06, No Iterations 1
DICPCG:  Solving for p, Initial residual = 0.000734089, Final residual = 6.6693e-05, No Iterations 27
DICPCG:  Solving for p, Initial residual = 0.000114479, Final residual = 1.13863e-05, No Iterations 73
time step continuity errors : sum local = 8.81536e-12, global = 3.12004e-14, cumulative = -1.14662e-13
DICPCG:  Solving for p, Initial residual = 0.000250286, Final residual = 2.42942e-05, No Iterations 91
DICPCG:  Solving for p, Initial residual = 5.03007e-05, Final residual = 9.88861e-07, No Iterations 42
time step continuity errors : sum local = 7.65608e-13, global = -2.199e-15, cumulative = -1.16861e-13
DILUPBiCG:  Solving for omega, Initial residual = 8.63231e-06, Final residual = 8.63231e-06, No Iterations 0
DILUPBiCG:  Solving for k, Initial residual = 0.000824803, Final residual = 3.93933e-07, No Iterations 1
ExecutionTime = 2.13 s  ClockTime = 3 s

forces forces output:
    sum of forces:
        pressure : (1.08751 -0.00019008 9.55723e-18)
        viscous  : (0.0256061 -3.32523e-06 -2.65517e-18)
        porous   : (0 0 0)
    sum of moments:
        pressure : (9.504e-05 0.543755 -7.41295e-10)
        viscous  : (1.66262e-06 0.012803 -4.67777e-07)
        porous   : (0 0 0)

forceCoeffs forceCoeffs1 output:
    Cm    = 0.454333
    Cd    = 0.908667
    Cl    = -0.000157882
    Cl(f) = 0.454254
    Cl(r) = -0.454412

Time = 14.14

Courant Number mean: 0.0198081 max: 0.712849
DILUPBiCG:  Solving for Ux, Initial residual = 1.18483e-05, Final residual = 4.07157e-07, No Iterations 1
DILUPBiCG:  Solving for Uy, Initial residual = 0.00022598, Final residual = 4.69151e-06, No Iterations 1
DICPCG:  Solving for p, Initial residual = 0.000727412, Final residual = 6.68771e-05, No Iterations 27
DICPCG:  Solving for p, Initial residual = 0.000114475, Final residual = 1.04401e-05, No Iterations 75
time step continuity errors : sum local = 8.08182e-12, global = 6.93402e-14, cumulative = -4.75208e-14
DICPCG:  Solving for p, Initial residual = 0.000247675, Final residual = 2.41842e-05, No Iterations 91
DICPCG:  Solving for p, Initial residual = 4.97769e-05, Final residual = 9.96335e-07, No Iterations 42
time step continuity errors : sum local = 7.71299e-13, global = -4.93693e-15, cumulative = -5.24577e-14
DILUPBiCG:  Solving for omega, Initial residual = 8.63994e-06, Final residual = 8.63994e-06, No Iterations 0
DILUPBiCG:  Solving for k, Initial residual = 0.000823863, Final residual = 3.9344e-07, No Iterations 1
ExecutionTime = 2.29 s  ClockTime = 3 s

forces forces output:
    sum of forces:
        pressure : (1.08762 -0.000186038 9.55687e-18)
        viscous  : (0.0256008 -3.31669e-06 -2.65521e-18)
        porous   : (0 0 0)
    sum of moments:
        pressure : (9.3019e-05 0.543809 -7.57419e-10)
        viscous  : (1.65835e-06 0.0128004 -4.74812e-07)
        porous   : (0 0 0)

forceCoeffs forceCoeffs1 output:
    Cm    = 0.454375
    Cd    = 0.90875
    Cl    = -0.000154575
    Cl(f) = 0.454298
    Cl(r) = -0.454452

Time = 14.15

Courant Number mean: 0.0198081 max: 0.71291
DILUPBiCG:  Solving for Ux, Initial residual = 1.18447e-05, Final residual = 4.00882e-07, No Iterations 1
DILUPBiCG:  Solving for Uy, Initial residual = 0.000225817, Final residual = 4.69924e-06, No Iterations 1
DICPCG:  Solving for p, Initial residual = 0.000741035, Final residual = 6.84008e-05, No Iterations 27
DICPCG:  Solving for p, Initial residual = 0.000115523, Final residual = 1.08028e-05, No Iterations 75
time step continuity errors : sum local = 8.36123e-12, global = 8.83889e-14, cumulative = 3.59312e-14
DICPCG:  Solving for p, Initial residual = 0.000245842, Final residual = 2.41656e-05, No Iterations 91
DICPCG:  Solving for p, Initial residual = 4.92367e-05, Final residual = 9.85684e-07, No Iterations 42
time step continuity errors : sum local = 7.62932e-13, global = 1.11621e-15, cumulative = 3.70474e-14
DILUPBiCG:  Solving for omega, Initial residual = 8.64763e-06, Final residual = 8.64763e-06, No Iterations 0
DILUPBiCG:  Solving for k, Initial residual = 0.000822924, Final residual = 3.92878e-07, No Iterations 1
ExecutionTime = 2.45 s  ClockTime = 3 s

forces forces output:
    sum of forces:
        pressure : (1.08773 -0.000185505 9.55649e-18)
        viscous  : (0.0255956 -3.30801e-06 -2.65526e-18)
        porous   : (0 0 0)
    sum of moments:
        pressure : (9.27526e-05 0.543864 -7.69513e-10)
        viscous  : (1.654e-06 0.0127978 -4.81779e-07)
        porous   : (0 0 0)

forceCoeffs forceCoeffs1 output:
    Cm    = 0.454418
    Cd    = 0.908836
    Cl    = -0.000154133
    Cl(f) = 0.454341
    Cl(r) = -0.454495

Time = 14.16

Courant Number mean: 0.0198081 max: 0.712966
DILUPBiCG:  Solving for Ux, Initial residual = 1.18411e-05, Final residual = 3.95233e-07, No Iterations 1
DILUPBiCG:  Solving for Uy, Initial residual = 0.000225656, Final residual = 4.7072e-06, No Iterations 1
DICPCG:  Solving for p, Initial residual = 0.000773499, Final residual = 7.63431e-05, No Iterations 26
DICPCG:  Solving for p, Initial residual = 0.000121582, Final residual = 1.04986e-05, No Iterations 76
time step continuity errors : sum local = 8.12437e-12, global = 1.40248e-13, cumulative = 1.77295e-13
DICPCG:  Solving for p, Initial residual = 0.000246761, Final residual = 2.38115e-05, No Iterations 91
DICPCG:  Solving for p, Initial residual = 4.89665e-05, Final residual = 9.68185e-07, No Iterations 42
time step continuity errors : sum local = 7.49263e-13, global = 5.33989e-15, cumulative = 1.82635e-13
DILUPBiCG:  Solving for omega, Initial residual = 8.65532e-06, Final residual = 8.65532e-06, No Iterations 0
DILUPBiCG:  Solving for k, Initial residual = 0.000821986, Final residual = 3.9236e-07, No Iterations 1
ExecutionTime = 2.6 s  ClockTime = 3 s

forces forces output:
    sum of forces:
        pressure : (1.08781 -0.000180992 9.55602e-18)
        viscous  : (0.0255904 -3.29946e-06 -2.65529e-18)
        porous   : (0 0 0)
    sum of moments:
        pressure : (9.0496e-05 0.543906 -7.54254e-10)
        viscous  : (1.64973e-06 0.0127952 -4.88548e-07)
        porous   : (0 0 0)

forceCoeffs forceCoeffs1 output:
    Cm    = 0.45445
    Cd    = 0.9089
    Cl    = -0.000150442
    Cl(f) = 0.454375
    Cl(r) = -0.454525

Time = 14.17

Courant Number mean: 0.0198082 max: 0.713003
DILUPBiCG:  Solving for Ux, Initial residual = 1.18372e-05, Final residual = 3.88445e-07, No Iterations 1
DILUPBiCG:  Solving for Uy, Initial residual = 0.000225478, Final residual = 4.711e-06, No Iterations 1
DICPCG:  Solving for p, Initial residual = 0.000766524, Final residual = 7.53931e-05, No Iterations 26
DICPCG:  Solving for p, Initial residual = 0.000121215, Final residual = 1.04534e-05, No Iterations 76
time step continuity errors : sum local = 8.08819e-12, global = 1.49337e-13, cumulative = 3.31972e-13
DICPCG:  Solving for p, Initial residual = 0.000243895, Final residual = 2.40008e-05, No Iterations 91
DICPCG:  Solving for p, Initial residual = 4.82754e-05, Final residual = 9.67451e-07, No Iterations 42
time step continuity errors : sum local = 7.48578e-13, global = 1.08868e-14, cumulative = 3.42859e-13
DILUPBiCG:  Solving for omega, Initial residual = 8.66301e-06, Final residual = 8.66301e-06, No Iterations 0
DILUPBiCG:  Solving for k, Initial residual = 0.000821049, Final residual = 3.91905e-07, No Iterations 1
ExecutionTime = 2.76 s  ClockTime = 3 s

forces forces output:
    sum of forces:
        pressure : (1.08793 -0.00017756 9.55564e-18)
        viscous  : (0.0255852 -3.2917e-06 -2.65535e-18)
        porous   : (0 0 0)
    sum of moments:
        pressure : (8.87801e-05 0.543965 -7.68587e-10)
        viscous  : (1.64585e-06 0.0127926 -4.95118e-07)
        porous   : (0 0 0)

forceCoeffs forceCoeffs1 output:
    Cm    = 0.454496
    Cd    = 0.908992
    Cl    = -0.000147634
    Cl(f) = 0.454422
    Cl(r) = -0.45457

Time = 14.18

Courant Number mean: 0.0198082 max: 0.713027
DILUPBiCG:  Solving for Ux, Initial residual = 1.18338e-05, Final residual = 3.83239e-07, No Iterations 1
DILUPBiCG:  Solving for Uy, Initial residual = 0.000225314, Final residual = 4.71797e-06, No Iterations 1
DICPCG:  Solving for p, Initial residual = 0.000765249, Final residual = 7.49217e-05, No Iterations 26
DICPCG:  Solving for p, Initial residual = 0.000121245, Final residual = 1.17523e-05, No Iterations 75
time step continuity errors : sum local = 9.0917e-12, global = 1.16024e-13, cumulative = 4.58883e-13
DICPCG:  Solving for p, Initial residual = 0.000243513, Final residual = 2.40593e-05, No Iterations 91
DICPCG:  Solving for p, Initial residual = 4.7868e-05, Final residual = 9.42859e-07, No Iterations 42
time step continuity errors : sum local = 7.29429e-13, global = 1.38058e-14, cumulative = 4.72689e-13
DILUPBiCG:  Solving for omega, Initial residual = 8.6707e-06, Final residual = 8.6707e-06, No Iterations 0
DILUPBiCG:  Solving for k, Initial residual = 0.000820114, Final residual = 3.91356e-07, No Iterations 1
ExecutionTime = 2.91 s  ClockTime = 3 s

forces forces output:
    sum of forces:
        pressure : (1.08804 -0.000175029 9.55513e-18)
        viscous  : (0.02558 -3.28124e-06 -2.65541e-18)
        porous   : (0 0 0)
    sum of moments:
        pressure : (8.75145e-05 0.54402 -7.56189e-10)
        viscous  : (1.64062e-06 0.01279 -5.01553e-07)
        porous   : (0 0 0)

forceCoeffs forceCoeffs1 output:
    Cm    = 0.454539
    Cd    = 0.909078
    Cl    = -0.000145559
    Cl(f) = 0.454466
    Cl(r) = -0.454612

Time = 14.19

Courant Number mean: 0.0198082 max: 0.713043
DILUPBiCG:  Solving for Ux, Initial residual = 1.18301e-05, Final residual = 3.77692e-07, No Iterations 1
DILUPBiCG:  Solving for Uy, Initial residual = 0.000225153, Final residual = 4.72238e-06, No Iterations 1
DICPCG:  Solving for p, Initial residual = 0.000740128, Final residual = 7.29085e-05, No Iterations 26
DICPCG:  Solving for p, Initial residual = 0.000118625, Final residual = 1.01602e-05, No Iterations 76
time step continuity errors : sum local = 7.85903e-12, global = 1.44807e-13, cumulative = 6.17496e-13
DICPCG:  Solving for p, Initial residual = 0.000241483, Final residual = 2.39501e-05, No Iterations 91
DICPCG:  Solving for p, Initial residual = 4.75577e-05, Final residual = 9.307e-07, No Iterations 42
time step continuity errors : sum local = 7.19929e-13, global = 1.59784e-14, cumulative = 6.33474e-13
DILUPBiCG:  Solving for omega, Initial residual = 8.67832e-06, Final residual = 8.67832e-06, No Iterations 0
DILUPBiCG:  Solving for k, Initial residual = 0.000819179, Final residual = 3.90825e-07, No Iterations 1
ExecutionTime = 3.07 s  ClockTime = 4 s

forces forces output:
    sum of forces:
        pressure : (1.08815 -0.000172456 9.55475e-18)
        viscous  : (0.0255749 -3.26978e-06 -2.65546e-18)
        porous   : (0 0 0)
    sum of moments:
        pressure : (8.62278e-05 0.544073 -7.70557e-10)
        viscous  : (1.63489e-06 0.0127875 -5.07885e-07)
        porous   : (0 0 0)

forceCoeffs forceCoeffs1 output:
    Cm    = 0.45458
    Cd    = 0.90916
    Cl    = -0.000143449
    Cl(f) = 0.454508
    Cl(r) = -0.454652

Time = 14.2

Courant Number mean: 0.0198083 max: 0.713051
DILUPBiCG:  Solving for Ux, Initial residual = 1.18265e-05, Final residual = 3.71994e-07, No Iterations 1
DILUPBiCG:  Solving for Uy, Initial residual = 0.000224989, Final residual = 4.73019e-06, No Iterations 1
DICPCG:  Solving for p, Initial residual = 0.00073033, Final residual = 6.71514e-05, No Iterations 27
DICPCG:  Solving for p, Initial residual = 0.000113967, Final residual = 1.04768e-05, No Iterations 75
time step continuity errors : sum local = 8.10274e-12, global = 7.70396e-14, cumulative = 7.10514e-13
DICPCG:  Solving for p, Initial residual = 0.000238648, Final residual = 2.38498e-05, No Iterations 91
DICPCG:  Solving for p, Initial residual = 4.70073e-05, Final residual = 9.2571e-07, No Iterations 42
time step continuity errors : sum local = 7.15968e-13, global = 1.04203e-14, cumulative = 7.20934e-13
DILUPBiCG:  Solving for omega, Initial residual = 8.68591e-06, Final residual = 8.68591e-06, No Iterations 0
DILUPBiCG:  Solving for k, Initial residual = 0.000818246, Final residual = 3.90284e-07, No Iterations 1
ExecutionTime = 3.22 s  ClockTime = 4 s

forces forces output:
    sum of forces:
        pressure : (1.08826 -0.000171197 9.5543e-18)
        viscous  : (0.0255698 -3.25845e-06 -2.65552e-18)
        porous   : (0 0 0)
    sum of moments:
        pressure : (8.55984e-05 0.544128 -7.72069e-10)
        viscous  : (1.62922e-06 0.0127849 -5.14417e-07)
        porous   : (0 0 0)

forceCoeffs forceCoeffs1 output:
    Cm    = 0.454623
    Cd    = 0.909246
    Cl    = -0.000142412
    Cl(f) = 0.454552
    Cl(r) = -0.454694

Time = 14.21

Courant Number mean: 0.0198083 max: 0.713052
DILUPBiCG:  Solving for Ux, Initial residual = 1.18229e-05, Final residual = 3.66622e-07, No Iterations 1
DILUPBiCG:  Solving for Uy, Initial residual = 0.000224817, Final residual = 4.73571e-06, No Iterations 1
DICPCG:  Solving for p, Initial residual = 0.00073049, Final residual = 7.22335e-05, No Iterations 26
DICPCG:  Solving for p, Initial residual = 0.000116064, Final residual = 1.15661e-05, No Iterations 75
time step continuity errors : sum local = 8.94394e-12, global = 1.17699e-13, cumulative = 8.38633e-13
DICPCG:  Solving for p, Initial residual = 0.000238389, Final residual = 2.38163e-05, No Iterations 91
DICPCG:  Solving for p, Initial residual = 4.67822e-05, Final residual = 9.90377e-07, No Iterations 41
time step continuity errors : sum local = 7.65874e-13, global = 2.15053e-14, cumulative = 8.60138e-13
DILUPBiCG:  Solving for omega, Initial residual = 8.6935e-06, Final residual = 8.6935e-06, No Iterations 0
DILUPBiCG:  Solving for k, Initial residual = 0.000817315, Final residual = 3.89703e-07, No Iterations 1
ExecutionTime = 3.37 s  ClockTime = 4 s

forces forces output:
    sum of forces:
        pressure : (1.08837 -0.000167754 9.55384e-18)
        viscous  : (0.0255647 -3.24788e-06 -2.65557e-18)
        porous   : (0 0 0)
    sum of moments:
        pressure : (8.38771e-05 0.544183 -7.72347e-10)
        viscous  : (1.62394e-06 0.0127824 -5.20945e-07)
        porous   : (0 0 0)

forceCoeffs forceCoeffs1 output:
    Cm    = 0.454666
    Cd    = 0.909331
    Cl    = -0.000139594
    Cl(f) = 0.454596
    Cl(r) = -0.454735

Time = 14.22

Courant Number mean: 0.0198083 max: 0.713045
DILUPBiCG:  Solving for Ux, Initial residual = 1.18196e-05, Final residual = 3.61149e-07, No Iterations 1
DILUPBiCG:  Solving for Uy, Initial residual = 0.000224651, Final residual = 4.74189e-06, No Iterations 1
DICPCG:  Solving for p, Initial residual = 0.000722911, Final residual = 7.1792e-05, No Iterations 26
DICPCG:  Solving for p, Initial residual = 0.000116209, Final residual = 1.14123e-05, No Iterations 75
time step continuity errors : sum local = 8.82382e-12, global = 1.13165e-13, cumulative = 9.73303e-13
DICPCG:  Solving for p, Initial residual = 0.000236836, Final residual = 2.05711e-05, No Iterations 92
DICPCG:  Solving for p, Initial residual = 4.37753e-05, Final residual = 9.04647e-07, No Iterations 41
time step continuity errors : sum local = 6.99485e-13, global = -1.71178e-14, cumulative = 9.56185e-13
DILUPBiCG:  Solving for omega, Initial residual = 8.70109e-06, Final residual = 8.70109e-06, No Iterations 0
DILUPBiCG:  Solving for k, Initial residual = 0.000816384, Final residual = 3.8914e-07, No Iterations 1
ExecutionTime = 3.52 s  ClockTime = 4 s

forces forces output:
    sum of forces:
        pressure : (1.08847 -0.000165586 9.5534e-18)
        viscous  : (0.0255596 -3.23927e-06 -2.65563e-18)
        porous   : (0 0 0)
    sum of moments:
        pressure : (8.2793e-05 0.544237 -7.76152e-10)
        viscous  : (1.61963e-06 0.0127798 -5.27614e-07)
        porous   : (0 0 0)

forceCoeffs forceCoeffs1 output:
    Cm    = 0.454708
    Cd    = 0.909415
    Cl    = -0.000137816
    Cl(f) = 0.454639
    Cl(r) = -0.454777

Time = 14.23

Courant Number mean: 0.0198084 max: 0.71303
DILUPBiCG:  Solving for Ux, Initial residual = 1.18158e-05, Final residual = 3.56041e-07, No Iterations 1
DILUPBiCG:  Solving for Uy, Initial residual = 0.000224488, Final residual = 4.74767e-06, No Iterations 1
DICPCG:  Solving for p, Initial residual = 0.000731459, Final residual = 7.21235e-05, No Iterations 26
DICPCG:  Solving for p, Initial residual = 0.000115336, Final residual = 1.13583e-05, No Iterations 75
time step continuity errors : sum local = 8.78089e-12, global = 1.12629e-13, cumulative = 1.06881e-12
DICPCG:  Solving for p, Initial residual = 0.000236305, Final residual = 2.36105e-05, No Iterations 91
DICPCG:  Solving for p, Initial residual = 4.59089e-05, Final residual = 9.68608e-07, No Iterations 41
time step continuity errors : sum local = 7.48836e-13, global = 2.61096e-14, cumulative = 1.09492e-12
DILUPBiCG:  Solving for omega, Initial residual = 8.70865e-06, Final residual = 8.70865e-06, No Iterations 0
DILUPBiCG:  Solving for k, Initial residual = 0.000815449, Final residual = 3.88478e-07, No Iterations 1
ExecutionTime = 3.67 s  ClockTime = 4 s

forces forces output:
    sum of forces:
        pressure : (1.08859 -0.00016194 9.55289e-18)
        viscous  : (0.0255546 -3.23075e-06 -2.65569e-18)
        porous   : (0 0 0)
    sum of moments:
        pressure : (8.097e-05 0.544294 -7.80982e-10)
        viscous  : (1.61538e-06 0.0127773 -5.34316e-07)
        porous   : (0 0 0)

forceCoeffs forceCoeffs1 output:
    Cm    = 0.454752
    Cd    = 0.909504
    Cl    = -0.000134833
    Cl(f) = 0.454685
    Cl(r) = -0.454819

Time = 14.24

Courant Number mean: 0.0198084 max: 0.71304
DILUPBiCG:  Solving for Ux, Initial residual = 1.18127e-05, Final residual = 3.50967e-07, No Iterations 1
DILUPBiCG:  Solving for Uy, Initial residual = 0.000224324, Final residual = 4.75389e-06, No Iterations 1
DICPCG:  Solving for p, Initial residual = 0.000749923, Final residual = 7.24923e-05, No Iterations 26
DICPCG:  Solving for p, Initial residual = 0.000114635, Final residual = 9.63017e-06, No Iterations 76
time step continuity errors : sum local = 7.44385e-12, global = 1.31167e-13, cumulative = 1.22609e-12
DICPCG:  Solving for p, Initial residual = 0.000235895, Final residual = 2.02578e-05, No Iterations 92
DICPCG:  Solving for p, Initial residual = 4.29563e-05, Final residual = 9.77144e-07, No Iterations 40
time step continuity errors : sum local = 7.5534e-13, global = -1.03588e-14, cumulative = 1.21573e-12
DILUPBiCG:  Solving for omega, Initial residual = 8.71619e-06, Final residual = 8.71619e-06, No Iterations 0
DILUPBiCG:  Solving for k, Initial residual = 0.00081451, Final residual = 3.87893e-07, No Iterations 1
ExecutionTime = 3.83 s  ClockTime = 4 s

forces forces output:
    sum of forces:
        pressure : (1.08869 -0.000161601 9.55249e-18)
        viscous  : (0.0255496 -3.22147e-06 -2.65575e-18)
        porous   : (0 0 0)
    sum of moments:
        pressure : (8.08004e-05 0.544345 -7.84636e-10)
        viscous  : (1.61074e-06 0.0127748 -5.40911e-07)
        porous   : (0 0 0)

forceCoeffs forceCoeffs1 output:
    Cm    = 0.454792
    Cd    = 0.909583
    Cl    = -0.000134549
    Cl(f) = 0.454724
    Cl(r) = -0.454859

Time = 14.25

Courant Number mean: 0.0198084 max: 0.713123
DILUPBiCG:  Solving for Ux, Initial residual = 1.18087e-05, Final residual = 3.45552e-07, No Iterations 1
DILUPBiCG:  Solving for Uy, Initial residual = 0.000224155, Final residual = 4.75866e-06, No Iterations 1
DICPCG:  Solving for p, Initial residual = 0.000743938, Final residual = 7.25986e-05, No Iterations 26
DICPCG:  Solving for p, Initial residual = 0.000115506, Final residual = 1.14192e-05, No Iterations 75
time step continuity errors : sum local = 8.8256e-12, global = 1.13588e-13, cumulative = 1.32932e-12
DICPCG:  Solving for p, Initial residual = 0.0002348, Final residual = 2.32896e-05, No Iterations 61
DICPCG:  Solving for p, Initial residual = 4.51634e-05, Final residual = 9.39142e-07, No Iterations 80
time step continuity errors : sum local = 7.25711e-13, global = 5.4984e-15, cumulative = 1.33482e-12
DILUPBiCG:  Solving for omega, Initial residual = 8.72371e-06, Final residual = 8.72371e-06, No Iterations 0
DILUPBiCG:  Solving for k, Initial residual = 0.000813573, Final residual = 3.87309e-07, No Iterations 1
ExecutionTime = 3.99 s  ClockTime = 5 s

forces forces output:
    sum of forces:
        pressure : (1.08881 -0.000156212 9.55199e-18)
        viscous  : (0.0255446 -3.21211e-06 -2.65582e-18)
        porous   : (0 0 0)
    sum of moments:
        pressure : (7.8106e-05 0.544404 -7.946e-10)
        viscous  : (1.60606e-06 0.0127723 -5.4738e-07)
        porous   : (0 0 0)

forceCoeffs forceCoeffs1 output:
    Cm    = 0.454838
    Cd    = 0.909675
    Cl    = -0.000130142
    Cl(f) = 0.454773
    Cl(r) = -0.454903

Time = 14.26

Courant Number mean: 0.0198085 max: 0.713199
DILUPBiCG:  Solving for Ux, Initial residual = 1.18061e-05, Final residual = 3.40332e-07, No Iterations 1
DILUPBiCG:  Solving for Uy, Initial residual = 0.00022399, Final residual = 4.76409e-06, No Iterations 1
DICPCG:  Solving for p, Initial residual = 0.000747293, Final residual = 7.18117e-05, No Iterations 26
DICPCG:  Solving for p, Initial residual = 0.000115631, Final residual = 1.10212e-05, No Iterations 75
time step continuity errors : sum local = 8.51662e-12, global = 1.02848e-13, cumulative = 1.43767e-12
DICPCG:  Solving for p, Initial residual = 0.000235647, Final residual = 2.29661e-05, No Iterations 61
DICPCG:  Solving for p, Initial residual = 4.45994e-05, Final residual = 9.9789e-07, No Iterations 80
time step continuity errors : sum local = 7.70988e-13, global = 1.0966e-14, cumulative = 1.44863e-12
DILUPBiCG:  Solving for omega, Initial residual = 8.73121e-06, Final residual = 8.73121e-06, No Iterations 0
DILUPBiCG:  Solving for k, Initial residual = 0.000812636, Final residual = 3.86791e-07, No Iterations 1
ExecutionTime = 4.15 s  ClockTime = 5 s

forces forces output:
    sum of forces:
        pressure : (1.08891 -0.00015517 9.55156e-18)
        viscous  : (0.0255396 -3.20182e-06 -2.65588e-18)
        porous   : (0 0 0)
    sum of moments:
        pressure : (7.7585e-05 0.544457 -7.92614e-10)
        viscous  : (1.60091e-06 0.0127698 -5.53723e-07)
        porous   : (0 0 0)

forceCoeffs forceCoeffs1 output:
    Cm    = 0.454879
    Cd    = 0.909758
    Cl    = -0.000129283
    Cl(f) = 0.454814
    Cl(r) = -0.454944

Time = 14.27

Courant Number mean: 0.0198085 max: 0.713269
DILUPBiCG:  Solving for Ux, Initial residual = 1.18022e-05, Final residual = 3.35748e-07, No Iterations 1
DILUPBiCG:  Solving for Uy, Initial residual = 0.000223811, Final residual = 4.76893e-06, No Iterations 1
DICPCG:  Solving for p, Initial residual = 0.000746439, Final residual = 7.13114e-05, No Iterations 26
DICPCG:  Solving for p, Initial residual = 0.00011496, Final residual = 1.08958e-05, No Iterations 75
time step continuity errors : sum local = 8.41836e-12, global = 1.04263e-13, cumulative = 1.5529e-12
DICPCG:  Solving for p, Initial residual = 0.000233618, Final residual = 2.24929e-05, No Iterations 61
DICPCG:  Solving for p, Initial residual = 4.40772e-05, Final residual = 9.4446e-07, No Iterations 80
time step continuity errors : sum local = 7.29591e-13, global = 9.0921e-15, cumulative = 1.56199e-12
DILUPBiCG:  Solving for omega, Initial residual = 8.73868e-06, Final residual = 8.73868e-06, No Iterations 0
DILUPBiCG:  Solving for k, Initial residual = 0.000811701, Final residual = 3.8615e-07, No Iterations 1
ExecutionTime = 4.3 s  ClockTime = 5 s

forces forces output:
    sum of forces:
        pressure : (1.08903 -0.000151344 9.55108e-18)
        viscous  : (0.0255347 -3.1908e-06 -2.65594e-18)
        porous   : (0 0 0)
    sum of moments:
        pressure : (7.5672e-05 0.544513 -7.98845e-10)
        viscous  : (1.5954e-06 0.0127673 -5.59928e-07)
        porous   : (0 0 0)

forceCoeffs forceCoeffs1 output:
    Cm    = 0.454922
    Cd    = 0.909845
    Cl    = -0.000126151
    Cl(f) = 0.454859
    Cl(r) = -0.454985

Time = 14.28

Courant Number mean: 0.0198085 max: 0.713332
DILUPBiCG:  Solving for Ux, Initial residual = 1.17991e-05, Final residual = 3.30599e-07, No Iterations 1
DILUPBiCG:  Solving for Uy, Initial residual = 0.000223649, Final residual = 4.77406e-06, No Iterations 1
DICPCG:  Solving for p, Initial residual = 0.000749456, Final residual = 7.04244e-05, No Iterations 26
DICPCG:  Solving for p, Initial residual = 0.000113655, Final residual = 1.07958e-05, No Iterations 75
time step continuity errors : sum local = 8.33958e-12, global = 1.02474e-13, cumulative = 1.66446e-12
DICPCG:  Solving for p, Initial residual = 0.000233018, Final residual = 2.29533e-05, No Iterations 54
DICPCG:  Solving for p, Initial residual = 4.35427e-05, Final residual = 9.49123e-07, No Iterations 93
time step continuity errors : sum local = 7.33049e-13, global = 7.17285e-16, cumulative = 1.66518e-12
DILUPBiCG:  Solving for omega, Initial residual = 8.74614e-06, Final residual = 8.74614e-06, No Iterations 0
DILUPBiCG:  Solving for k, Initial residual = 0.000810767, Final residual = 3.85573e-07, No Iterations 1
ExecutionTime = 4.46 s  ClockTime = 5 s

forces forces output:
    sum of forces:
        pressure : (1.08913 -0.000148168 9.55064e-18)
        viscous  : (0.0255297 -3.17979e-06 -2.65601e-18)
        porous   : (0 0 0)
    sum of moments:
        pressure : (7.40841e-05 0.544565 -8.004e-10)
        viscous  : (1.5899e-06 0.0127649 -5.65989e-07)
        porous   : (0 0 0)

forceCoeffs forceCoeffs1 output:
    Cm    = 0.454963
    Cd    = 0.909927
    Cl    = -0.000123549
    Cl(f) = 0.454902
    Cl(r) = -0.455025

Time = 14.29

Courant Number mean: 0.0198086 max: 0.713389
DILUPBiCG:  Solving for Ux, Initial residual = 1.17956e-05, Final residual = 3.25696e-07, No Iterations 1
DILUPBiCG:  Solving for Uy, Initial residual = 0.000223479, Final residual = 4.77866e-06, No Iterations 1
DICPCG:  Solving for p, Initial residual = 0.000739034, Final residual = 7.00708e-05, No Iterations 26
DICPCG:  Solving for p, Initial residual = 0.000113225, Final residual = 1.08201e-05, No Iterations 75
time step continuity errors : sum local = 8.35727e-12, global = 1.0445e-13, cumulative = 1.76963e-12
DICPCG:  Solving for p, Initial residual = 0.000232114, Final residual = 2.25543e-05, No Iterations 54
DICPCG:  Solving for p, Initial residual = 4.31743e-05, Final residual = 9.57384e-07, No Iterations 93
time step continuity errors : sum local = 7.39341e-13, global = 1.47374e-15, cumulative = 1.7711e-12
DILUPBiCG:  Solving for omega, Initial residual = 8.75356e-06, Final residual = 8.75356e-06, No Iterations 0
DILUPBiCG:  Solving for k, Initial residual = 0.000809834, Final residual = 3.84921e-07, No Iterations 1
ExecutionTime = 4.62 s  ClockTime = 5 s

forces forces output:
    sum of forces:
        pressure : (1.08924 -0.000147271 9.55016e-18)
        viscous  : (0.0255248 -3.1688e-06 -2.65607e-18)
        porous   : (0 0 0)
    sum of moments:
        pressure : (7.36356e-05 0.54462 -7.88392e-10)
        viscous  : (1.5844e-06 0.0127624 -5.71907e-07)
        porous   : (0 0 0)

forceCoeffs forceCoeffs1 output:
    Cm    = 0.455006
    Cd    = 0.910013
    Cl    = -0.000122808
    Cl(f) = 0.454945
    Cl(r) = -0.455068

Time = 14.3

Courant Number mean: 0.0198086 max: 0.713439
DILUPBiCG:  Solving for Ux, Initial residual = 1.17922e-05, Final residual = 3.20996e-07, No Iterations 1
DILUPBiCG:  Solving for Uy, Initial residual = 0.000223307, Final residual = 4.78321e-06, No Iterations 1
DICPCG:  Solving for p, Initial residual = 0.000737151, Final residual = 7.01549e-05, No Iterations 26
DICPCG:  Solving for p, Initial residual = 0.000112955, Final residual = 1.05301e-05, No Iterations 75
time step continuity errors : sum local = 8.13189e-12, global = 9.43052e-14, cumulative = 1.86541e-12
DICPCG:  Solving for p, Initial residual = 0.000232434, Final residual = 2.2447e-05, No Iterations 54
DICPCG:  Solving for p, Initial residual = 4.27267e-05, Final residual = 9.4744e-07, No Iterations 93
time step continuity errors : sum local = 7.31541e-13, global = 1.50722e-15, cumulative = 1.86692e-12
DILUPBiCG:  Solving for omega, Initial residual = 8.76096e-06, Final residual = 8.76096e-06, No Iterations 0
DILUPBiCG:  Solving for k, Initial residual = 0.000808903, Final residual = 3.84325e-07, No Iterations 1
ExecutionTime = 4.78 s  ClockTime = 5 s

forces forces output:
    sum of forces:
        pressure : (1.08936 -0.000141317 9.54971e-18)
        viscous  : (0.0255199 -3.15796e-06 -2.65615e-18)
        porous   : (0 0 0)
    sum of moments:
        pressure : (7.06585e-05 0.544679 -8.35591e-10)
        viscous  : (1.57898e-06 0.01276 -5.77665e-07)
        porous   : (0 0 0)

forceCoeffs forceCoeffs1 output:
    Cm    = 0.455052
    Cd    = 0.910104
    Cl    = -0.000117939
    Cl(f) = 0.454993
    Cl(r) = -0.455111

Time = 14.31

Courant Number mean: 0.0198086 max: 0.713482
DILUPBiCG:  Solving for Ux, Initial residual = 1.17891e-05, Final residual = 3.16354e-07, No Iterations 1
DILUPBiCG:  Solving for Uy, Initial residual = 0.000223137, Final residual = 4.78808e-06, No Iterations 1
DICPCG:  Solving for p, Initial residual = 0.000727617, Final residual = 6.94992e-05, No Iterations 26
DICPCG:  Solving for p, Initial residual = 0.000111547, Final residual = 1.04886e-05, No Iterations 75
time step continuity errors : sum local = 8.09893e-12, global = 9.82248e-14, cumulative = 1.96514e-12
DICPCG:  Solving for p, Initial residual = 0.000230059, Final residual = 2.29075e-05, No Iterations 53
DICPCG:  Solving for p, Initial residual = 4.2892e-05, Final residual = 9.38699e-07, No Iterations 94
time step continuity errors : sum local = 7.24702e-13, global = 4.06257e-16, cumulative = 1.96555e-12
DILUPBiCG:  Solving for omega, Initial residual = 8.76833e-06, Final residual = 8.76833e-06, No Iterations 0
DILUPBiCG:  Solving for k, Initial residual = 0.000807973, Final residual = 3.83676e-07, No Iterations 1
ExecutionTime = 4.94 s  ClockTime = 5 s

forces forces output:
    sum of forces:
        pressure : (1.08947 -0.000140774 9.54924e-18)
        viscous  : (0.0255151 -3.14695e-06 -2.65622e-18)
        porous   : (0 0 0)
    sum of moments:
        pressure : (7.03872e-05 0.544733 -8.0829e-10)
        viscous  : (1.57348e-06 0.0127575 -5.83707e-07)
        porous   : (0 0 0)

forceCoeffs forceCoeffs1 output:
    Cm    = 0.455094
    Cd    = 0.910189
    Cl    = -0.000117487
    Cl(f) = 0.455036
    Cl(r) = -0.455153

Time = 14.32

Courant Number mean: 0.0198087 max: 0.713518
DILUPBiCG:  Solving for Ux, Initial residual = 1.17857e-05, Final residual = 3.11983e-07, No Iterations 1
DILUPBiCG:  Solving for Uy, Initial residual = 0.000222964, Final residual = 4.79212e-06, No Iterations 1
DICPCG:  Solving for p, Initial residual = 0.0007333, Final residual = 6.96455e-05, No Iterations 26
DICPCG:  Solving for p, Initial residual = 0.000111897, Final residual = 1.04e-05, No Iterations 75
time step continuity errors : sum local = 8.02947e-12, global = 9.23429e-14, cumulative = 2.05789e-12
DICPCG:  Solving for p, Initial residual = 0.000229559, Final residual = 2.28188e-05, No Iterations 53
DICPCG:  Solving for p, Initial residual = 4.25258e-05, Final residual = 9.21634e-07, No Iterations 94
time step continuity errors : sum local = 7.11439e-13, global = 3.77541e-16, cumulative = 2.05827e-12
DILUPBiCG:  Solving for omega, Initial residual = 8.77567e-06, Final residual = 8.77567e-06, No Iterations 0
DILUPBiCG:  Solving for k, Initial residual = 0.000807043, Final residual = 3.82998e-07, No Iterations 1
ExecutionTime = 5.1 s  ClockTime = 6 s

forces forces output:
    sum of forces:
        pressure : (1.08958 -0.000137556 9.54878e-18)
        viscous  : (0.0255102 -3.13606e-06 -2.65629e-18)
        porous   : (0 0 0)
    sum of moments:
        pressure : (6.87781e-05 0.544789 -8.31527e-10)
        viscous  : (1.56803e-06 0.0127551 -5.89352e-07)
        porous   : (0 0 0)

forceCoeffs forceCoeffs1 output:
    Cm    = 0.455138
    Cd    = 0.910275
    Cl    = -0.000114851
    Cl(f) = 0.45508
    Cl(r) = -0.455195

Time = 14.33

Courant Number mean: 0.0198087 max: 0.713548
DILUPBiCG:  Solving for Ux, Initial residual = 1.17823e-05, Final residual = 3.07663e-07, No Iterations 1
DILUPBiCG:  Solving for Uy, Initial residual = 0.000222794, Final residual = 4.79604e-06, No Iterations 1
DICPCG:  Solving for p, Initial residual = 0.000728258, Final residual = 7.01216e-05, No Iterations 26
DICPCG:  Solving for p, Initial residual = 0.000112934, Final residual = 1.05849e-05, No Iterations 75
time step continuity errors : sum local = 8.17112e-12, global = 9.50623e-14, cumulative = 2.15333e-12
DICPCG:  Solving for p, Initial residual = 0.000229352, Final residual = 2.29255e-05, No Iterations 51
DICPCG:  Solving for p, Initial residual = 4.18598e-05, Final residual = 9.04119e-07, No Iterations 95
time step continuity errors : sum local = 6.97826e-13, global = 5.1503e-16, cumulative = 2.15384e-12
DILUPBiCG:  Solving for omega, Initial residual = 8.78298e-06, Final residual = 8.78298e-06, No Iterations 0
DILUPBiCG:  Solving for k, Initial residual = 0.000806115, Final residual = 3.82415e-07, No Iterations 1
ExecutionTime = 5.26 s  ClockTime = 6 s

forces forces output:
    sum of forces:
        pressure : (1.08969 -0.000133531 9.54837e-18)
        viscous  : (0.0255054 -3.12501e-06 -2.65637e-18)
        porous   : (0 0 0)
    sum of moments:
        pressure : (6.67653e-05 0.544846 -8.22628e-10)
        viscous  : (1.5625e-06 0.0127527 -5.94652e-07)
        porous   : (0 0 0)

forceCoeffs forceCoeffs1 output:
    Cm    = 0.455182
    Cd    = 0.910364
    Cl    = -0.000111556
    Cl(f) = 0.455126
    Cl(r) = -0.455238

Time = 14.34

Courant Number mean: 0.0198087 max: 0.713571
DILUPBiCG:  Solving for Ux, Initial residual = 1.1779e-05, Final residual = 3.0349e-07, No Iterations 1
DILUPBiCG:  Solving for Uy, Initial residual = 0.000222608, Final residual = 4.80046e-06, No Iterations 1
DICPCG:  Solving for p, Initial residual = 0.000725143, Final residual = 6.92089e-05, No Iterations 26
DICPCG:  Solving for p, Initial residual = 0.000111913, Final residual = 1.03596e-05, No Iterations 75
time step continuity errors : sum local = 7.99611e-12, global = 9.13013e-14, cumulative = 2.24515e-12
DICPCG:  Solving for p, Initial residual = 0.000228216, Final residual = 2.27321e-05, No Iterations 51
DICPCG:  Solving for p, Initial residual = 4.16817e-05, Final residual = 8.93708e-07, No Iterations 95
time step continuity errors : sum local = 6.897e-13, global = 4.8181e-16, cumulative = 2.24563e-12
DILUPBiCG:  Solving for omega, Initial residual = 8.79027e-06, Final residual = 8.79027e-06, No Iterations 0
DILUPBiCG:  Solving for k, Initial residual = 0.000805188, Final residual = 3.81776e-07, No Iterations 1
ExecutionTime = 5.41 s  ClockTime = 6 s

forces forces output:
    sum of forces:
        pressure : (1.0898 -0.00013159 9.54794e-18)
        viscous  : (0.0255006 -3.11383e-06 -2.65645e-18)
        porous   : (0 0 0)
    sum of moments:
        pressure : (6.57949e-05 0.544901 -8.34761e-10)
        viscous  : (1.55691e-06 0.0127503 -5.99869e-07)
        porous   : (0 0 0)

forceCoeffs forceCoeffs1 output:
    Cm    = 0.455226
    Cd    = 0.910451
    Cl    = -0.000109962
    Cl(f) = 0.455171
    Cl(r) = -0.455281

Time = 14.35

Courant Number mean: 0.0198088 max: 0.713587
DILUPBiCG:  Solving for Ux, Initial residual = 1.17757e-05, Final residual = 2.9924e-07, No Iterations 1
DILUPBiCG:  Solving for Uy, Initial residual = 0.00022243, Final residual = 4.80413e-06, No Iterations 1
DICPCG:  Solving for p, Initial residual = 0.000717065, Final residual = 6.902e-05, No Iterations 26
DICPCG:  Solving for p, Initial residual = 0.000111385, Final residual = 1.02134e-05, No Iterations 75
time step continuity errors : sum local = 7.88214e-12, global = 8.8988e-14, cumulative = 2.33462e-12
DICPCG:  Solving for p, Initial residual = 0.000227281, Final residual = 2.26463e-05, No Iterations 51
DICPCG:  Solving for p, Initial residual = 4.14424e-05, Final residual = 8.97951e-07, No Iterations 95
time step continuity errors : sum local = 6.92879e-13, global = 5.68925e-16, cumulative = 2.33518e-12
DILUPBiCG:  Solving for omega, Initial residual = 8.79753e-06, Final residual = 8.79753e-06, No Iterations 0
DILUPBiCG:  Solving for k, Initial residual = 0.000804263, Final residual = 3.81233e-07, No Iterations 1
ExecutionTime = 5.57 s  ClockTime = 6 s

forces forces output:
    sum of forces:
        pressure : (1.08991 -0.000129032 9.54752e-18)
        viscous  : (0.0254958 -3.10277e-06 -2.65653e-18)
        porous   : (0 0 0)
    sum of moments:
        pressure : (6.45159e-05 0.544957 -8.36184e-10)
        viscous  : (1.55138e-06 0.0127479 -6.04986e-07)
        porous   : (0 0 0)

forceCoeffs forceCoeffs1 output:
    Cm    = 0.455269
    Cd    = 0.910539
    Cl    = -0.000107865
    Cl(f) = 0.455215
    Cl(r) = -0.455323

Time = 14.36

Courant Number mean: 0.0198088 max: 0.713597
DILUPBiCG:  Solving for Ux, Initial residual = 1.17724e-05, Final residual = 2.95271e-07, No Iterations 1
DILUPBiCG:  Solving for Uy, Initial residual = 0.000222248, Final residual = 4.80773e-06, No Iterations 1
DICPCG:  Solving for p, Initial residual = 0.000714134, Final residual = 6.78592e-05, No Iterations 26
DICPCG:  Solving for p, Initial residual = 0.000110167, Final residual = 9.84851e-06, No Iterations 75
time step continuity errors : sum local = 7.5996e-12, global = 8.83323e-14, cumulative = 2.42352e-12
DICPCG:  Solving for p, Initial residual = 0.00022663, Final residual = 2.24555e-05, No Iterations 51
DICPCG:  Solving for p, Initial residual = 4.12268e-05, Final residual = 8.84985e-07, No Iterations 95
time step continuity errors : sum local = 6.82787e-13, global = 3.80966e-16, cumulative = 2.4239e-12
DILUPBiCG:  Solving for omega, Initial residual = 8.80477e-06, Final residual = 8.80477e-06, No Iterations 0
DILUPBiCG:  Solving for k, Initial residual = 0.000803338, Final residual = 3.806e-07, No Iterations 1
ExecutionTime = 5.73 s  ClockTime = 6 s

forces forces output:
    sum of forces:
        pressure : (1.09002 -0.000125728 9.54709e-18)
        viscous  : (0.0254911 -3.0917e-06 -2.65661e-18)
        porous   : (0 0 0)
    sum of moments:
        pressure : (6.28642e-05 0.545012 -8.4685e-10)
        viscous  : (1.54585e-06 0.0127455 -6.09984e-07)
        porous   : (0 0 0)

forceCoeffs forceCoeffs1 output:
    Cm    = 0.455312
    Cd    = 0.910625
    Cl    = -0.000105159
    Cl(f) = 0.45526
    Cl(r) = -0.455365

Time = 14.37

Courant Number mean: 0.0198088 max: 0.7136
DILUPBiCG:  Solving for Ux, Initial residual = 1.17691e-05, Final residual = 2.91261e-07, No Iterations 1
DILUPBiCG:  Solving for Uy, Initial residual = 0.000222079, Final residual = 4.81131e-06, No Iterations 1
DICPCG:  Solving for p, Initial residual = 0.000714099, Final residual = 6.81298e-05, No Iterations 26
DICPCG:  Solving for p, Initial residual = 0.000110414, Final residual = 9.93546e-06, No Iterations 75
time step continuity errors : sum local = 7.6657e-12, global = 8.46336e-14, cumulative = 2.50853e-12
DICPCG:  Solving for p, Initial residual = 0.000226245, Final residual = 2.22484e-05, No Iterations 51
DICPCG:  Solving for p, Initial residual = 4.07847e-05, Final residual = 8.83669e-07, No Iterations 95
time step continuity errors : sum local = 6.81687e-13, global = 5.91647e-16, cumulative = 2.50912e-12
DILUPBiCG:  Solving for omega, Initial residual = 8.81197e-06, Final residual = 8.81197e-06, No Iterations 0
DILUPBiCG:  Solving for k, Initial residual = 0.000802414, Final residual = 3.79992e-07, No Iterations 1
ExecutionTime = 5.89 s  ClockTime = 6 s

forces forces output:
    sum of forces:
        pressure : (1.09014 -0.000122946 9.54669e-18)
        viscous  : (0.0254864 -3.08051e-06 -2.65669e-18)
        porous   : (0 0 0)
    sum of moments:
        pressure : (6.14731e-05 0.545068 -8.47105e-10)
        viscous  : (1.54025e-06 0.0127432 -6.1475e-07)
        porous   : (0 0 0)

forceCoeffs forceCoeffs1 output:
    Cm    = 0.455356
    Cd    = 0.910712
    Cl    = -0.000102879
    Cl(f) = 0.455305
    Cl(r) = -0.455408

Time = 14.38

Courant Number mean: 0.0198089 max: 0.713598
DILUPBiCG:  Solving for Ux, Initial residual = 1.17659e-05, Final residual = 2.87506e-07, No Iterations 1
DILUPBiCG:  Solving for Uy, Initial residual = 0.000221892, Final residual = 4.81437e-06, No Iterations 1
DICPCG:  Solving for p, Initial residual = 0.000725325, Final residual = 6.7676e-05, No Iterations 26
DICPCG:  Solving for p, Initial residual = 0.000109139, Final residual = 9.87143e-06, No Iterations 75
time step continuity errors : sum local = 7.61526e-12, global = 8.26317e-14, cumulative = 2.59175e-12
DICPCG:  Solving for p, Initial residual = 0.000226278, Final residual = 2.21454e-05, No Iterations 51
DICPCG:  Solving for p, Initial residual = 4.06987e-05, Final residual = 8.85913e-07, No Iterations 95
time step continuity errors : sum local = 6.83327e-13, global = 6.36967e-16, cumulative = 2.59239e-12
DILUPBiCG:  Solving for omega, Initial residual = 8.81915e-06, Final residual = 8.81915e-06, No Iterations 0
DILUPBiCG:  Solving for k, Initial residual = 0.000801492, Final residual = 3.79372e-07, No Iterations 1
ExecutionTime = 6.05 s  ClockTime = 7 s

forces forces output:
    sum of forces:
        pressure : (1.09025 -0.000120084 9.54629e-18)
        viscous  : (0.0254817 -3.06893e-06 -2.65681e-18)
        porous   : (0 0 0)
    sum of moments:
        pressure : (6.00419e-05 0.545123 -8.58811e-10)
        viscous  : (1.53446e-06 0.0127408 -6.1944e-07)
        porous   : (0 0 0)

forceCoeffs forceCoeffs1 output:
    Cm    = 0.455399
    Cd    = 0.910799
    Cl    = -0.000100533
    Cl(f) = 0.455349
    Cl(r) = -0.45545

Time = 14.39

Courant Number mean: 0.0198089 max: 0.713594
DILUPBiCG:  Solving for Ux, Initial residual = 1.17627e-05, Final residual = 2.83896e-07, No Iterations 1
DILUPBiCG:  Solving for Uy, Initial residual = 0.000221713, Final residual = 4.81732e-06, No Iterations 1
DICPCG:  Solving for p, Initial residual = 0.00072314, Final residual = 6.79282e-05, No Iterations 26
DICPCG:  Solving for p, Initial residual = 0.000109589, Final residual = 9.8642e-06, No Iterations 75
time step continuity errors : sum local = 7.60862e-12, global = 8.20109e-14, cumulative = 2.6744e-12
DICPCG:  Solving for p, Initial residual = 0.00022605, Final residual = 2.20576e-05, No Iterations 51
DICPCG:  Solving for p, Initial residual = 4.03741e-05, Final residual = 8.78636e-07, No Iterations 95
time step continuity errors : sum local = 6.77621e-13, global = 6.32147e-16, cumulative = 2.67503e-12
DILUPBiCG:  Solving for omega, Initial residual = 8.82629e-06, Final residual = 8.82629e-06, No Iterations 0
DILUPBiCG:  Solving for k, Initial residual = 0.000800571, Final residual = 3.7866e-07, No Iterations 1
ExecutionTime = 6.21 s  ClockTime = 7 s

forces forces output:
    sum of forces:
        pressure : (1.09036 -0.000117339 9.5459e-18)
        viscous  : (0.025477 -3.05636e-06 -2.6569e-18)
        porous   : (0 0 0)
    sum of moments:
        pressure : (5.86697e-05 0.545178 -8.59352e-10)
        viscous  : (1.52818e-06 0.0127385 -6.24034e-07)
        porous   : (0 0 0)

forceCoeffs forceCoeffs1 output:
    Cm    = 0.455442
    Cd    = 0.910885
    Cl    = -9.82822e-05
    Cl(f) = 0.455393
    Cl(r) = -0.455492

Time = 14.4

Courant Number mean: 0.019809 max: 0.713586
DILUPBiCG:  Solving for Ux, Initial residual = 1.17595e-05, Final residual = 2.80315e-07, No Iterations 1
DILUPBiCG:  Solving for Uy, Initial residual = 0.000221536, Final residual = 4.82024e-06, No Iterations 1
DICPCG:  Solving for p, Initial residual = 0.000719461, Final residual = 6.74193e-05, No Iterations 26
DICPCG:  Solving for p, Initial residual = 0.000108793, Final residual = 9.65156e-06, No Iterations 75
time step continuity errors : sum local = 7.44363e-12, global = 7.60398e-14, cumulative = 2.75107e-12
DICPCG:  Solving for p, Initial residual = 0.00022592, Final residual = 2.18614e-05, No Iterations 51
DICPCG:  Solving for p, Initial residual = 4.0089e-05, Final residual = 8.74728e-07, No Iterations 95
time step continuity errors : sum local = 6.7452e-13, global = 7.34485e-16, cumulative = 2.75181e-12
DILUPBiCG:  Solving for omega, Initial residual = 8.83339e-06, Final residual = 8.83339e-06, No Iterations 0
DILUPBiCG:  Solving for k, Initial residual = 0.00079965, Final residual = 3.7804e-07, No Iterations 1
ExecutionTime = 6.36 s  ClockTime = 7 s

forces forces output:
    sum of forces:
        pressure : (1.09047 -0.000114827 9.54552e-18)
        viscous  : (0.0254724 -3.04335e-06 -2.65699e-18)
        porous   : (0 0 0)
    sum of moments:
        pressure : (5.74133e-05 0.545234 -8.67085e-10)
        viscous  : (1.52167e-06 0.0127362 -6.28482e-07)
        porous   : (0 0 0)

forceCoeffs forceCoeffs1 output:
    Cm    = 0.455486
    Cd    = 0.910972
    Cl    = -9.62204e-05
    Cl(f) = 0.455438
    Cl(r) = -0.455534

Time = 14.41

Courant Number mean: 0.019809 max: 0.713574
DILUPBiCG:  Solving for Ux, Initial residual = 1.17563e-05, Final residual = 2.76828e-07, No Iterations 1
DILUPBiCG:  Solving for Uy, Initial residual = 0.000221359, Final residual = 4.82298e-06, No Iterations 1
DICPCG:  Solving for p, Initial residual = 0.000712916, Final residual = 6.70224e-05, No Iterations 26
DICPCG:  Solving for p, Initial residual = 0.000108323, Final residual = 9.62719e-06, No Iterations 75
time step continuity errors : sum local = 7.42385e-12, global = 7.87324e-14, cumulative = 2.83054e-12
DICPCG:  Solving for p, Initial residual = 0.000225822, Final residual = 2.17407e-05, No Iterations 51
DICPCG:  Solving for p, Initial residual = 3.98304e-05, Final residual = 8.69204e-07, No Iterations 95
time step continuity errors : sum local = 6.70174e-13, global = 7.13954e-16, cumulative = 2.83125e-12
DILUPBiCG:  Solving for omega, Initial residual = 8.84048e-06, Final residual = 8.84048e-06, No Iterations 0
DILUPBiCG:  Solving for k, Initial residual = 0.000798732, Final residual = 3.77432e-07, No Iterations 1
ExecutionTime = 6.52 s  ClockTime = 7 s

forces forces output:
    sum of forces:
        pressure : (1.09058 -0.000111709 9.54516e-18)
        viscous  : (0.0254678 -3.03014e-06 -2.65707e-18)
        porous   : (0 0 0)
    sum of moments:
        pressure : (5.58544e-05 0.545289 -8.72262e-10)
        viscous  : (1.51507e-06 0.0127339 -6.32775e-07)
        porous   : (0 0 0)

forceCoeffs forceCoeffs1 output:
    Cm    = 0.455529
    Cd    = 0.911058
    Cl    = -9.36645e-05
    Cl(f) = 0.455482
    Cl(r) = -0.455576

Time = 14.42

Courant Number mean: 0.019809 max: 0.713556
DILUPBiCG:  Solving for Ux, Initial residual = 1.17532e-05, Final residual = 2.73411e-07, No Iterations 1
DILUPBiCG:  Solving for Uy, Initial residual = 0.000221181, Final residual = 4.82552e-06, No Iterations 1
DICPCG:  Solving for p, Initial residual = 0.000706881, Final residual = 6.67247e-05, No Iterations 26
DICPCG:  Solving for p, Initial residual = 0.00010784, Final residual = 9.55209e-06, No Iterations 75
time step continuity errors : sum local = 7.3649e-12, global = 7.39754e-14, cumulative = 2.90523e-12
DICPCG:  Solving for p, Initial residual = 0.000224476, Final residual = 2.16302e-05, No Iterations 51
DICPCG:  Solving for p, Initial residual = 3.9617e-05, Final residual = 9.62783e-07, No Iterations 94
time step continuity errors : sum local = 7.42223e-13, global = 2.41859e-15, cumulative = 2.90765e-12
DILUPBiCG:  Solving for omega, Initial residual = 8.84754e-06, Final residual = 8.84754e-06, No Iterations 0
DILUPBiCG:  Solving for k, Initial residual = 0.000797814, Final residual = 3.76839e-07, No Iterations 1
ExecutionTime = 6.68 s  ClockTime = 7 s

forces forces output:
    sum of forces:
        pressure : (1.09069 -0.000108773 9.54482e-18)
        viscous  : (0.0254632 -3.0187e-06 -2.65716e-18)
        porous   : (0 0 0)
    sum of moments:
        pressure : (5.43863e-05 0.545345 -8.80971e-10)
        viscous  : (1.50935e-06 0.0127316 -6.3643e-07)
        porous   : (0 0 0)

forceCoeffs forceCoeffs1 output:
    Cm    = 0.455572
    Cd    = 0.911145
    Cl    = -9.12581e-05
    Cl(f) = 0.455527
    Cl(r) = -0.455618

Time = 14.43

Courant Number mean: 0.0198091 max: 0.713534
DILUPBiCG:  Solving for Ux, Initial residual = 1.17501e-05, Final residual = 2.70147e-07, No Iterations 1
DILUPBiCG:  Solving for Uy, Initial residual = 0.000221003, Final residual = 4.82783e-06, No Iterations 1
DICPCG:  Solving for p, Initial residual = 0.000705298, Final residual = 6.65498e-05, No Iterations 26
DICPCG:  Solving for p, Initial residual = 0.000107581, Final residual = 9.53851e-06, No Iterations 75
time step continuity errors : sum local = 7.35335e-12, global = 7.18812e-14, cumulative = 2.97953e-12
DICPCG:  Solving for p, Initial residual = 0.000223926, Final residual = 2.15391e-05, No Iterations 51
DICPCG:  Solving for p, Initial residual = 3.94507e-05, Final residual = 9.89494e-07, No Iterations 94
time step continuity errors : sum local = 7.62706e-13, global = 2.56008e-15, cumulative = 2.98209e-12
DILUPBiCG:  Solving for omega, Initial residual = 8.85458e-06, Final residual = 8.85458e-06, No Iterations 0
DILUPBiCG:  Solving for k, Initial residual = 0.000796897, Final residual = 3.76169e-07, No Iterations 1
ExecutionTime = 6.84 s  ClockTime = 7 s

forces forces output:
    sum of forces:
        pressure : (1.0908 -0.0001058 9.54448e-18)
        viscous  : (0.0254586 -3.00805e-06 -2.65726e-18)
        porous   : (0 0 0)
    sum of moments:
        pressure : (5.29002e-05 0.5454 -8.89224e-10)
        viscous  : (1.50403e-06 0.0127293 -6.39889e-07)
        porous   : (0 0 0)

forceCoeffs forceCoeffs1 output:
    Cm    = 0.455616
    Cd    = 0.911231
    Cl    = -8.88233e-05
    Cl(f) = 0.455571
    Cl(r) = -0.45566

Time = 14.44

Courant Number mean: 0.0198091 max: 0.713508
DILUPBiCG:  Solving for Ux, Initial residual = 1.17471e-05, Final residual = 2.67029e-07, No Iterations 1
DILUPBiCG:  Solving for Uy, Initial residual = 0.000220825, Final residual = 4.83011e-06, No Iterations 1
DICPCG:  Solving for p, Initial residual = 0.000732659, Final residual = 6.61397e-05, No Iterations 26
DICPCG:  Solving for p, Initial residual = 0.000107668, Final residual = 9.4283e-06, No Iterations 75
time step continuity errors : sum local = 7.2673e-12, global = 6.72719e-14, cumulative = 3.04936e-12
DICPCG:  Solving for p, Initial residual = 0.000224947, Final residual = 2.15501e-05, No Iterations 51
DICPCG:  Solving for p, Initial residual = 3.93999e-05, Final residual = 9.79754e-07, No Iterations 94
time step continuity errors : sum local = 7.55087e-13, global = 2.55565e-15, cumulative = 3.05192e-12
DILUPBiCG:  Solving for omega, Initial residual = 8.86158e-06, Final residual = 8.86158e-06, No Iterations 0
DILUPBiCG:  Solving for k, Initial residual = 0.000795982, Final residual = 3.75578e-07, No Iterations 1
ExecutionTime = 6.99 s  ClockTime = 8 s

forces forces output:
    sum of forces:
        pressure : (1.09091 -0.000101009 9.54416e-18)
        viscous  : (0.0254541 -2.99818e-06 -2.65736e-18)
        porous   : (0 0 0)
    sum of moments:
        pressure : (5.05046e-05 0.545456 -9.0533e-10)
        viscous  : (1.49909e-06 0.012727 -6.43293e-07)
        porous   : (0 0 0)

forceCoeffs forceCoeffs1 output:
    Cm    = 0.45566
    Cd    = 0.911319
    Cl    = -8.49041e-05
    Cl(f) = 0.455617
    Cl(r) = -0.455702

Time = 14.45

Courant Number mean: 0.0198092 max: 0.713481
DILUPBiCG:  Solving for Ux, Initial residual = 1.17442e-05, Final residual = 2.63965e-07, No Iterations 1
DILUPBiCG:  Solving for Uy, Initial residual = 0.000220647, Final residual = 4.83241e-06, No Iterations 1
DICPCG:  Solving for p, Initial residual = 0.000746925, Final residual = 6.52412e-05, No Iterations 26
DICPCG:  Solving for p, Initial residual = 0.000107264, Final residual = 9.54118e-06, No Iterations 75
time step continuity errors : sum local = 7.3528e-12, global = 7.27315e-14, cumulative = 3.12465e-12
DICPCG:  Solving for p, Initial residual = 0.000225873, Final residual = 2.23059e-05, No Iterations 50
DICPCG:  Solving for p, Initial residual = 4.03293e-05, Final residual = 9.00858e-07, No Iterations 94
time step continuity errors : sum local = 6.94143e-13, global = 2.77007e-15, cumulative = 3.12742e-12
DILUPBiCG:  Solving for omega, Initial residual = 8.86856e-06, Final residual = 8.86856e-06, No Iterations 0
DILUPBiCG:  Solving for k, Initial residual = 0.000795068, Final residual = 3.74867e-07, No Iterations 1
ExecutionTime = 7.15 s  ClockTime = 8 s

forces forces output:
    sum of forces:
        pressure : (1.09102 -0.000104151 9.54384e-18)
        viscous  : (0.0254496 -2.9876e-06 -2.65744e-18)
        porous   : (0 0 0)
    sum of moments:
        pressure : (5.20757e-05 0.545508 -8.82153e-10)
        viscous  : (1.4938e-06 0.0127248 -6.46532e-07)
        porous   : (0 0 0)

forceCoeffs forceCoeffs1 output:
    Cm    = 0.455701
    Cd    = 0.911401
    Cl    = -8.74604e-05
    Cl(f) = 0.455657
    Cl(r) = -0.455744

Time = 14.46

Courant Number mean: 0.0198092 max: 0.713452
DILUPBiCG:  Solving for Ux, Initial residual = 1.1741e-05, Final residual = 2.6094e-07, No Iterations 1
DILUPBiCG:  Solving for Uy, Initial residual = 0.000220468, Final residual = 4.83399e-06, No Iterations 1
DICPCG:  Solving for p, Initial residual = 0.000740148, Final residual = 6.58652e-05, No Iterations 26
DICPCG:  Solving for p, Initial residual = 0.000107201, Final residual = 9.32443e-06, No Iterations 75
time step continuity errors : sum local = 7.18483e-12, global = 6.49609e-14, cumulative = 3.19238e-12
DICPCG:  Solving for p, Initial residual = 0.000225186, Final residual = 2.22771e-05, No Iterations 50
DICPCG:  Solving for p, Initial residual = 4.01631e-05, Final residual = 8.89693e-07, No Iterations 94
time step continuity errors : sum local = 6.85451e-13, global = 2.52951e-15, cumulative = 3.19491e-12
DILUPBiCG:  Solving for omega, Initial residual = 8.87551e-06, Final residual = 8.87551e-06, No Iterations 0
DILUPBiCG:  Solving for k, Initial residual = 0.000794154, Final residual = 3.74221e-07, No Iterations 1
ExecutionTime = 7.3 s  ClockTime = 8 s

forces forces output:
    sum of forces:
        pressure : (1.09113 -9.50665e-05 9.54355e-18)
        viscous  : (0.0254452 -2.97617e-06 -2.65754e-18)
        porous   : (0 0 0)
    sum of moments:
        pressure : (4.75333e-05 0.545563 -9.1975e-10)
        viscous  : (1.48809e-06 0.0127226 -6.49602e-07)
        porous   : (0 0 0)

forceCoeffs forceCoeffs1 output:
    Cm    = 0.455743
    Cd    = 0.911486
    Cl    = -8.00348e-05
    Cl(f) = 0.455703
    Cl(r) = -0.455783

Time = 14.47

Courant Number mean: 0.0198092 max: 0.713421
DILUPBiCG:  Solving for Ux, Initial residual = 1.17381e-05, Final residual = 2.57913e-07, No Iterations 1
DILUPBiCG:  Solving for Uy, Initial residual = 0.000220291, Final residual = 4.83571e-06, No Iterations 1
DICPCG:  Solving for p, Initial residual = 0.000706561, Final residual = 6.48959e-05, No Iterations 26
DICPCG:  Solving for p, Initial residual = 0.000106048, Final residual = 1.05048e-05, No Iterations 74
time step continuity errors : sum local = 8.09337e-12, global = 8.02187e-14, cumulative = 3.27513e-12
DICPCG:  Solving for p, Initial residual = 0.000224694, Final residual = 2.22513e-05, No Iterations 50
DICPCG:  Solving for p, Initial residual = 4.00385e-05, Final residual = 9.98396e-07, No Iterations 92
time step continuity errors : sum local = 7.69107e-13, global = 5.05329e-15, cumulative = 3.28018e-12
DILUPBiCG:  Solving for omega, Initial residual = 8.88243e-06, Final residual = 8.88243e-06, No Iterations 0
DILUPBiCG:  Solving for k, Initial residual = 0.000793242, Final residual = 3.73537e-07, No Iterations 1
ExecutionTime = 7.46 s  ClockTime = 8 s

forces forces output:
    sum of forces:
        pressure : (1.09123 -9.55202e-05 9.54328e-18)
        viscous  : (0.0254407 -2.9637e-06 -2.65764e-18)
        porous   : (0 0 0)
    sum of moments:
        pressure : (4.77601e-05 0.545617 -9.09864e-10)
        viscous  : (1.48185e-06 0.0127204 -6.52502e-07)
        porous   : (0 0 0)

forceCoeffs forceCoeffs1 output:
    Cm    = 0.455786
    Cd    = 0.911571
    Cl    = -8.0395e-05
    Cl(f) = 0.455745
    Cl(r) = -0.455826

Time = 14.48

Courant Number mean: 0.0198093 max: 0.713389
DILUPBiCG:  Solving for Ux, Initial residual = 1.17351e-05, Final residual = 2.54973e-07, No Iterations 1
DILUPBiCG:  Solving for Uy, Initial residual = 0.000220113, Final residual = 4.83686e-06, No Iterations 1
DICPCG:  Solving for p, Initial residual = 0.000710158, Final residual = 6.4852e-05, No Iterations 26
DICPCG:  Solving for p, Initial residual = 0.00010601, Final residual = 9.40274e-06, No Iterations 75
time step continuity errors : sum local = 7.24347e-12, global = 6.16662e-14, cumulative = 3.34185e-12
DICPCG:  Solving for p, Initial residual = 0.000224188, Final residual = 2.20706e-05, No Iterations 50
DICPCG:  Solving for p, Initial residual = 3.98829e-05, Final residual = 8.85091e-07, No Iterations 94
time step continuity errors : sum local = 6.81748e-13, global = 2.77622e-15, cumulative = 3.34462e-12
DILUPBiCG:  Solving for omega, Initial residual = 8.88932e-06, Final residual = 8.88932e-06, No Iterations 0
DILUPBiCG:  Solving for k, Initial residual = 0.000792332, Final residual = 3.72878e-07, No Iterations 1
ExecutionTime = 7.63 s  ClockTime = 8 s

forces forces output:
    sum of forces:
        pressure : (1.09134 -9.07982e-05 9.54304e-18)
        viscous  : (0.0254363 -2.95103e-06 -2.65774e-18)
        porous   : (0 0 0)
    sum of moments:
        pressure : (4.53991e-05 0.545671 -9.27829e-10)
        viscous  : (1.47551e-06 0.0127182 -6.55189e-07)
        porous   : (0 0 0)

forceCoeffs forceCoeffs1 output:
    Cm    = 0.455828
    Cd    = 0.911655
    Cl    = -7.653e-05
    Cl(f) = 0.455789
    Cl(r) = -0.455866

Time = 14.49

Courant Number mean: 0.0198093 max: 0.713354
DILUPBiCG:  Solving for Ux, Initial residual = 1.17321e-05, Final residual = 2.52086e-07, No Iterations 1
DILUPBiCG:  Solving for Uy, Initial residual = 0.000219934, Final residual = 4.83854e-06, No Iterations 1
DICPCG:  Solving for p, Initial residual = 0.000702882, Final residual = 6.3869e-05, No Iterations 26
[...]
        porous   : (0 0 0)

forceCoeffs forceCoeffs1 output:
    Cm    = 0.407681
    Cd    = 0.815361
    Cl    = -0.000501342
    Cl(f) = 0.40743
    Cl(r) = -0.407931

Time = 32.83

Courant Number mean: 0.0198233 max: 0.721168
DILUPBiCG:  Solving for Ux, Initial residual = 7.48116e-06, Final residual = 7.48116e-06, No Iterations 0
DILUPBiCG:  Solving for Uy, Initial residual = 0.000102158, Final residual = 7.96613e-08, No Iterations 1
DICPCG:  Solving for p, Initial residual = 0.00133678, Final residual = 0.0001136, No Iterations 79
DICPCG:  Solving for p, Initial residual = 0.000413761, Final residual = 3.89183e-05, No Iterations 23
time step continuity errors : sum local = 2.84641e-11, global = -1.30086e-12, cumulative = -7.91151e-10
DICPCG:  Solving for p, Initial residual = 0.00123415, Final residual = 0.000111978, No Iterations 79
DICPCG:  Solving for p, Initial residual = 0.000419506, Final residual = 9.41707e-07, No Iterations 110
time step continuity errors : sum local = 6.85234e-13, global = 5.50181e-16, cumulative = -7.9115e-10
DILUPBiCG:  Solving for omega, Initial residual = 9.8296e-06, Final residual = 9.8296e-06, No Iterations 0
DILUPBiCG:  Solving for k, Initial residual = 9.4405e-05, Final residual = 3.35181e-09, No Iterations 1
ExecutionTime = 313.95 s  ClockTime = 317 s

forces forces output:
    sum of forces:
        pressure : (0.976842 -0.000615086 9.01931e-18)
        viscous  : (0.0219602 -1.92381e-06 -2.46129e-18)
        porous   : (0 0 0)
    sum of moments:
        pressure : (0.000307543 0.488421 -4.3111e-10)
        viscous  : (9.61903e-07 0.0109801 8.91152e-07)
        porous   : (0 0 0)

forceCoeffs forceCoeffs1 output:
    Cm    = 0.407675
    Cd    = 0.815349
    Cl    = -0.000503681
    Cl(f) = 0.407423
    Cl(r) = -0.407926

Time = 32.84

Courant Number mean: 0.0198233 max: 0.721171
DILUPBiCG:  Solving for Ux, Initial residual = 7.47917e-06, Final residual = 7.47917e-06, No Iterations 0
DILUPBiCG:  Solving for Uy, Initial residual = 0.000102099, Final residual = 7.96245e-08, No Iterations 1
DICPCG:  Solving for p, Initial residual = 0.00134261, Final residual = 0.000112692, No Iterations 79
DICPCG:  Solving for p, Initial residual = 0.000413751, Final residual = 3.87908e-05, No Iterations 23
time step continuity errors : sum local = 2.83721e-11, global = -1.30021e-12, cumulative = -7.9245e-10
DICPCG:  Solving for p, Initial residual = 0.00123519, Final residual = 0.000111636, No Iterations 79
DICPCG:  Solving for p, Initial residual = 0.000418962, Final residual = 9.45172e-07, No Iterations 110
time step continuity errors : sum local = 6.87789e-13, global = 4.91542e-16, cumulative = -7.9245e-10
DILUPBiCG:  Solving for omega, Initial residual = 9.8298e-06, Final residual = 9.8298e-06, No Iterations 0
DILUPBiCG:  Solving for k, Initial residual = 9.43027e-05, Final residual = 3.33788e-09, No Iterations 1
ExecutionTime = 314.14 s  ClockTime = 317 s

forces forces output:
    sum of forces:
        pressure : (0.976828 -0.000616135 9.01961e-18)
        viscous  : (0.0219602 -1.94069e-06 -2.46128e-18)
        porous   : (0 0 0)
    sum of moments:
        pressure : (0.000308067 0.488414 -4.94044e-10)
        viscous  : (9.70343e-07 0.0109801 8.90966e-07)
        porous   : (0 0 0)

forceCoeffs forceCoeffs1 output:
    Cm    = 0.407669
    Cd    = 0.815337
    Cl    = -0.000504551
    Cl(f) = 0.407416
    Cl(r) = -0.407921

Time = 32.85

Courant Number mean: 0.0198233 max: 0.721169
DILUPBiCG:  Solving for Ux, Initial residual = 7.47721e-06, Final residual = 7.47721e-06, No Iterations 0
DILUPBiCG:  Solving for Uy, Initial residual = 0.00010204, Final residual = 7.96431e-08, No Iterations 1
DICPCG:  Solving for p, Initial residual = 0.0013641, Final residual = 0.000134049, No Iterations 78
DICPCG:  Solving for p, Initial residual = 0.000429937, Final residual = 4.13937e-05, No Iterations 23
time step continuity errors : sum local = 3.02781e-11, global = -1.26149e-12, cumulative = -7.93711e-10
DICPCG:  Solving for p, Initial residual = 0.00123637, Final residual = 0.000111534, No Iterations 79
DICPCG:  Solving for p, Initial residual = 0.00041827, Final residual = 9.37501e-07, No Iterations 110
time step continuity errors : sum local = 6.82262e-13, global = 5.62453e-16, cumulative = -7.93711e-10
DILUPBiCG:  Solving for omega, Initial residual = 9.83001e-06, Final residual = 9.83001e-06, No Iterations 0
DILUPBiCG:  Solving for k, Initial residual = 9.42005e-05, Final residual = 3.32439e-09, No Iterations 1
ExecutionTime = 314.31 s  ClockTime = 317 s

forces forces output:
    sum of forces:
        pressure : (0.976812 -0.000617522 9.01991e-18)
        viscous  : (0.0219601 -1.95939e-06 -2.46127e-18)
        porous   : (0 0 0)
    sum of moments:
        pressure : (0.000308761 0.488406 -5.4977e-10)
        viscous  : (9.79694e-07 0.01098 8.90727e-07)
        porous   : (0 0 0)

forceCoeffs forceCoeffs1 output:
    Cm    = 0.407662
    Cd    = 0.815324
    Cl    = -0.000505699
    Cl(f) = 0.407409
    Cl(r) = -0.407915

Time = 32.86

Courant Number mean: 0.0198233 max: 0.721163
DILUPBiCG:  Solving for Ux, Initial residual = 7.47521e-06, Final residual = 7.47521e-06, No Iterations 0
DILUPBiCG:  Solving for Uy, Initial residual = 0.000101981, Final residual = 7.91673e-08, No Iterations 1
DICPCG:  Solving for p, Initial residual = 0.00136871, Final residual = 0.000132662, No Iterations 78
DICPCG:  Solving for p, Initial residual = 0.000428528, Final residual = 4.08226e-05, No Iterations 23
time step continuity errors : sum local = 2.98626e-11, global = -1.25429e-12, cumulative = -7.94965e-10
DICPCG:  Solving for p, Initial residual = 0.00123718, Final residual = 0.000111112, No Iterations 79
DICPCG:  Solving for p, Initial residual = 0.000417705, Final residual = 9.29779e-07, No Iterations 110
time step continuity errors : sum local = 6.76696e-13, global = 4.80907e-16, cumulative = -7.94964e-10
DILUPBiCG:  Solving for omega, Initial residual = 9.83022e-06, Final residual = 9.83022e-06, No Iterations 0
DILUPBiCG:  Solving for k, Initial residual = 9.40985e-05, Final residual = 3.31144e-09, No Iterations 1
ExecutionTime = 314.49 s  ClockTime = 317 s

forces forces output:
    sum of forces:
        pressure : (0.976797 -0.000618855 9.02018e-18)
        viscous  : (0.02196 -1.97924e-06 -2.46125e-18)
        porous   : (0 0 0)
    sum of moments:
        pressure : (0.000309428 0.488399 -6.05937e-10)
        viscous  : (9.89621e-07 0.01098 8.9049e-07)
        porous   : (0 0 0)

forceCoeffs forceCoeffs1 output:
    Cm    = 0.407656
    Cd    = 0.815312
    Cl    = -0.000506804
    Cl(f) = 0.407403
    Cl(r) = -0.407909

Time = 32.87

Courant Number mean: 0.0198233 max: 0.721153
DILUPBiCG:  Solving for Ux, Initial residual = 7.4732e-06, Final residual = 7.4732e-06, No Iterations 0
DILUPBiCG:  Solving for Uy, Initial residual = 0.000101922, Final residual = 7.92769e-08, No Iterations 1
DICPCG:  Solving for p, Initial residual = 0.00140785, Final residual = 0.000126828, No Iterations 78
DICPCG:  Solving for p, Initial residual = 0.000427197, Final residual = 4.19018e-05, No Iterations 23
time step continuity errors : sum local = 3.06509e-11, global = -1.2515e-12, cumulative = -7.96216e-10
DICPCG:  Solving for p, Initial residual = 0.00123763, Final residual = 0.000111228, No Iterations 79
DICPCG:  Solving for p, Initial residual = 0.000417729, Final residual = 9.27511e-07, No Iterations 110
time step continuity errors : sum local = 6.75022e-13, global = 7.78109e-16, cumulative = -7.96215e-10
DILUPBiCG:  Solving for omega, Initial residual = 9.83044e-06, Final residual = 9.83044e-06, No Iterations 0
DILUPBiCG:  Solving for k, Initial residual = 9.39965e-05, Final residual = 3.29843e-09, No Iterations 1
ExecutionTime = 314.66 s  ClockTime = 317 s

forces forces output:
    sum of forces:
        pressure : (0.976785 -0.000614668 9.02042e-18)
        viscous  : (0.0219599 -2e-06 -2.46124e-18)
        porous   : (0 0 0)
    sum of moments:
        pressure : (0.000307334 0.488392 -7.57307e-10)
        viscous  : (9.99998e-07 0.01098 8.90284e-07)
        porous   : (0 0 0)

forceCoeffs forceCoeffs1 output:
    Cm    = 0.407651
    Cd    = 0.815302
    Cl    = -0.000503403
    Cl(f) = 0.407399
    Cl(r) = -0.407903

Time = 32.88

Courant Number mean: 0.0198233 max: 0.721139
DILUPBiCG:  Solving for Ux, Initial residual = 7.47123e-06, Final residual = 7.47123e-06, No Iterations 0
DILUPBiCG:  Solving for Uy, Initial residual = 0.000101865, Final residual = 7.91383e-08, No Iterations 1
DICPCG:  Solving for p, Initial residual = 0.00140846, Final residual = 0.000129787, No Iterations 78
DICPCG:  Solving for p, Initial residual = 0.000428637, Final residual = 4.14538e-05, No Iterations 23
time step continuity errors : sum local = 3.03239e-11, global = -1.25009e-12, cumulative = -7.97465e-10
DICPCG:  Solving for p, Initial residual = 0.00123872, Final residual = 0.000110606, No Iterations 79
DICPCG:  Solving for p, Initial residual = 0.00041707, Final residual = 9.30802e-07, No Iterations 110
time step continuity errors : sum local = 6.77439e-13, global = 5.48635e-16, cumulative = -7.97465e-10
DILUPBiCG:  Solving for omega, Initial residual = 9.83069e-06, Final residual = 9.83069e-06, No Iterations 0
DILUPBiCG:  Solving for k, Initial residual = 9.38947e-05, Final residual = 3.28589e-09, No Iterations 1
ExecutionTime = 314.84 s  ClockTime = 317 s

forces forces output:
    sum of forces:
        pressure : (0.976771 -0.000613442 9.02065e-18)
        viscous  : (0.0219599 -2.01818e-06 -2.46122e-18)
        porous   : (0 0 0)
    sum of moments:
        pressure : (0.000306721 0.488385 -8.28324e-10)
        viscous  : (1.00909e-06 0.0109799 8.90121e-07)
        porous   : (0 0 0)

forceCoeffs forceCoeffs1 output:
    Cm    = 0.407645
    Cd    = 0.81529
    Cl    = -0.000502416
    Cl(f) = 0.407394
    Cl(r) = -0.407896

Time = 32.89

Courant Number mean: 0.0198233 max: 0.72112
DILUPBiCG:  Solving for Ux, Initial residual = 7.46928e-06, Final residual = 7.46928e-06, No Iterations 0
DILUPBiCG:  Solving for Uy, Initial residual = 0.000101806, Final residual = 7.92676e-08, No Iterations 1
DICPCG:  Solving for p, Initial residual = 0.00136887, Final residual = 0.000130801, No Iterations 78
DICPCG:  Solving for p, Initial residual = 0.000426738, Final residual = 4.09069e-05, No Iterations 23
time step continuity errors : sum local = 2.99237e-11, global = -1.25679e-12, cumulative = -7.98722e-10
DICPCG:  Solving for p, Initial residual = 0.00124024, Final residual = 0.000110142, No Iterations 79
DICPCG:  Solving for p, Initial residual = 0.000415488, Final residual = 9.26196e-07, No Iterations 110
time step continuity errors : sum local = 6.74087e-13, global = 5.62856e-16, cumulative = -7.98721e-10
DILUPBiCG:  Solving for omega, Initial residual = 9.83093e-06, Final residual = 9.83093e-06, No Iterations 0
DILUPBiCG:  Solving for k, Initial residual = 9.37929e-05, Final residual = 3.27322e-09, No Iterations 1
ExecutionTime = 315.02 s  ClockTime = 318 s

forces forces output:
    sum of forces:
        pressure : (0.976759 -0.000612198 9.02084e-18)
        viscous  : (0.0219598 -2.03288e-06 -2.46121e-18)
        porous   : (0 0 0)
    sum of moments:
        pressure : (0.000306099 0.48838 -9.31539e-10)
        viscous  : (1.01644e-06 0.0109799 8.90004e-07)
        porous   : (0 0 0)

forceCoeffs forceCoeffs1 output:
    Cm    = 0.40764
    Cd    = 0.815281
    Cl    = -0.000501413
    Cl(f) = 0.40739
    Cl(r) = -0.407891

Time = 32.9

Courant Number mean: 0.0198233 max: 0.721097
DILUPBiCG:  Solving for Ux, Initial residual = 7.46729e-06, Final residual = 7.46729e-06, No Iterations 0
DILUPBiCG:  Solving for Uy, Initial residual = 0.000101748, Final residual = 7.91921e-08, No Iterations 1
DICPCG:  Solving for p, Initial residual = 0.00137673, Final residual = 0.000129172, No Iterations 78
DICPCG:  Solving for p, Initial residual = 0.000425564, Final residual = 4.14439e-05, No Iterations 23
time step continuity errors : sum local = 3.03167e-11, global = -1.24752e-12, cumulative = -7.99968e-10
DICPCG:  Solving for p, Initial residual = 0.0012414, Final residual = 0.000109297, No Iterations 79
DICPCG:  Solving for p, Initial residual = 0.000414653, Final residual = 9.15958e-07, No Iterations 110
time step continuity errors : sum local = 6.66645e-13, global = 4.04556e-16, cumulative = -7.99968e-10
DILUPBiCG:  Solving for omega, Initial residual = 9.83118e-06, Final residual = 9.83118e-06, No Iterations 0
DILUPBiCG:  Solving for k, Initial residual = 9.36914e-05, Final residual = 3.26034e-09, No Iterations 1
ExecutionTime = 315.19 s  ClockTime = 318 s

forces forces output:
    sum of forces:
        pressure : (0.976745 -0.000610375 9.02102e-18)
        viscous  : (0.0219597 -2.04651e-06 -2.46119e-18)
        porous   : (0 0 0)
    sum of moments:
        pressure : (0.000305188 0.488372 -1.03591e-09)
        viscous  : (1.02326e-06 0.0109799 8.8993e-07)
        porous   : (0 0 0)

forceCoeffs forceCoeffs1 output:
    Cm    = 0.407635
    Cd    = 0.815269
    Cl    = -0.000499936
    Cl(f) = 0.407385
    Cl(r) = -0.407884

Time = 32.91

Courant Number mean: 0.0198233 max: 0.72107
DILUPBiCG:  Solving for Ux, Initial residual = 7.46528e-06, Final residual = 7.46528e-06, No Iterations 0
DILUPBiCG:  Solving for Uy, Initial residual = 0.000101689, Final residual = 7.92775e-08, No Iterations 1
DICPCG:  Solving for p, Initial residual = 0.00138265, Final residual = 0.000129487, No Iterations 78
DICPCG:  Solving for p, Initial residual = 0.000425938, Final residual = 4.12137e-05, No Iterations 23
time step continuity errors : sum local = 3.01516e-11, global = -1.24248e-12, cumulative = -8.01211e-10
DICPCG:  Solving for p, Initial residual = 0.00124204, Final residual = 0.000110439, No Iterations 79
DICPCG:  Solving for p, Initial residual = 0.000416276, Final residual = 9.23027e-07, No Iterations 110
time step continuity errors : sum local = 6.71864e-13, global = 5.50804e-16, cumulative = -8.0121e-10
DILUPBiCG:  Solving for omega, Initial residual = 9.83144e-06, Final residual = 9.83144e-06, No Iterations 0
DILUPBiCG:  Solving for k, Initial residual = 9.35899e-05, Final residual = 3.24752e-09, No Iterations 1
ExecutionTime = 315.37 s  ClockTime = 318 s

forces forces output:
    sum of forces:
        pressure : (0.976729 -0.00060799 9.02118e-18)
        viscous  : (0.0219596 -2.05953e-06 -2.46114e-18)
        porous   : (0 0 0)
    sum of moments:
        pressure : (0.000303995 0.488365 -1.14981e-09)
        viscous  : (1.02976e-06 0.0109798 8.89982e-07)
        porous   : (0 0 0)

forceCoeffs forceCoeffs1 output:
    Cm    = 0.407628
    Cd    = 0.815256
    Cl    = -0.000497999
    Cl(f) = 0.407379
    Cl(r) = -0.407877

Time = 32.92

Courant Number mean: 0.0198233 max: 0.721038
DILUPBiCG:  Solving for Ux, Initial residual = 7.46329e-06, Final residual = 7.46329e-06, No Iterations 0
DILUPBiCG:  Solving for Uy, Initial residual = 0.000101632, Final residual = 7.95044e-08, No Iterations 1
DICPCG:  Solving for p, Initial residual = 0.00138837, Final residual = 0.000127419, No Iterations 78
DICPCG:  Solving for p, Initial residual = 0.000425144, Final residual = 4.1138e-05, No Iterations 23
time step continuity errors : sum local = 3.00959e-11, global = -1.24269e-12, cumulative = -8.02453e-10
DICPCG:  Solving for p, Initial residual = 0.00124258, Final residual = 0.000109912, No Iterations 79
DICPCG:  Solving for p, Initial residual = 0.000415488, Final residual = 9.23312e-07, No Iterations 110
time step continuity errors : sum local = 6.72066e-13, global = 6.47875e-16, cumulative = -8.02452e-10
DILUPBiCG:  Solving for omega, Initial residual = 9.83169e-06, Final residual = 9.83169e-06, No Iterations 0
DILUPBiCG:  Solving for k, Initial residual = 9.34886e-05, Final residual = 3.23465e-09, No Iterations 1
ExecutionTime = 315.57 s  ClockTime = 318 s

forces forces output:
    sum of forces:
        pressure : (0.97672 -0.000615961 9.0213e-18)
        viscous  : (0.0219596 -2.07284e-06 -2.46112e-18)
        porous   : (0 0 0)
    sum of moments:
        pressure : (0.00030798 0.48836 -1.13819e-09)
        viscous  : (1.03642e-06 0.0109798 8.90124e-07)
        porous   : (0 0 0)

forceCoeffs forceCoeffs1 output:
    Cm    = 0.407624
    Cd    = 0.815248
    Cl    = -0.000504517
    Cl(f) = 0.407372
    Cl(r) = -0.407877

Time = 32.93

Courant Number mean: 0.0198232 max: 0.721002
DILUPBiCG:  Solving for Ux, Initial residual = 7.46129e-06, Final residual = 7.46129e-06, No Iterations 0
DILUPBiCG:  Solving for Uy, Initial residual = 0.000101574, Final residual = 7.92927e-08, No Iterations 1
DICPCG:  Solving for p, Initial residual = 0.00142143, Final residual = 0.000123817, No Iterations 78
DICPCG:  Solving for p, Initial residual = 0.00042272, Final residual = 4.13672e-05, No Iterations 23
time step continuity errors : sum local = 3.02611e-11, global = -1.2332e-12, cumulative = -8.03685e-10
DICPCG:  Solving for p, Initial residual = 0.00124377, Final residual = 0.000109546, No Iterations 79
DICPCG:  Solving for p, Initial residual = 0.000414884, Final residual = 9.13205e-07, No Iterations 110
time step continuity errors : sum local = 6.64657e-13, global = 6.16145e-16, cumulative = -8.03685e-10
DILUPBiCG:  Solving for omega, Initial residual = 9.83194e-06, Final residual = 9.83194e-06, No Iterations 0
DILUPBiCG:  Solving for k, Initial residual = 9.33875e-05, Final residual = 3.22188e-09, No Iterations 1
ExecutionTime = 315.76 s  ClockTime = 318 s

forces forces output:
    sum of forces:
        pressure : (0.976708 -0.000621418 9.0214e-18)
        viscous  : (0.0219595 -2.08667e-06 -2.46106e-18)
        porous   : (0 0 0)
    sum of moments:
        pressure : (0.000310709 0.488354 -1.14986e-09)
        viscous  : (1.04333e-06 0.0109797 8.90327e-07)
        porous   : (0 0 0)

forceCoeffs forceCoeffs1 output:
    Cm    = 0.407619
    Cd    = 0.815239
    Cl    = -0.000508984
    Cl(f) = 0.407365
    Cl(r) = -0.407874

Time = 32.94

Courant Number mean: 0.0198232 max: 0.720962
DILUPBiCG:  Solving for Ux, Initial residual = 7.45929e-06, Final residual = 7.45929e-06, No Iterations 0
DILUPBiCG:  Solving for Uy, Initial residual = 0.000101517, Final residual = 7.93953e-08, No Iterations 1
DICPCG:  Solving for p, Initial residual = 0.00138222, Final residual = 0.000127984, No Iterations 78
DICPCG:  Solving for p, Initial residual = 0.000424215, Final residual = 4.09001e-05, No Iterations 23
time step continuity errors : sum local = 2.99211e-11, global = -1.24457e-12, cumulative = -8.04929e-10
DICPCG:  Solving for p, Initial residual = 0.00124408, Final residual = 0.000109322, No Iterations 79
DICPCG:  Solving for p, Initial residual = 0.000414884, Final residual = 9.16645e-07, No Iterations 110
time step continuity errors : sum local = 6.67199e-13, global = 4.82558e-16, cumulative = -8.04929e-10
DILUPBiCG:  Solving for omega, Initial residual = 9.83218e-06, Final residual = 9.83218e-06, No Iterations 0
DILUPBiCG:  Solving for k, Initial residual = 9.32866e-05, Final residual = 3.2091e-09, No Iterations 1
ExecutionTime = 315.95 s  ClockTime = 319 s

forces forces output:
    sum of forces:
        pressure : (0.976694 -0.000620634 9.02148e-18)
        viscous  : (0.0219594 -2.1003e-06 -2.46103e-18)
        porous   : (0 0 0)
    sum of moments:
        pressure : (0.000310317 0.488347 -1.24395e-09)
        viscous  : (1.05015e-06 0.0109797 8.90524e-07)
        porous   : (0 0 0)

forceCoeffs forceCoeffs1 output:
    Cm    = 0.407614
    Cd    = 0.815228
    Cl    = -0.000508355
    Cl(f) = 0.40736
    Cl(r) = -0.407868

Time = 32.95

Courant Number mean: 0.0198232 max: 0.720918
DILUPBiCG:  Solving for Ux, Initial residual = 7.45727e-06, Final residual = 7.45727e-06, No Iterations 0
DILUPBiCG:  Solving for Uy, Initial residual = 0.00010146, Final residual = 7.96309e-08, No Iterations 1
